# generated using pymatgen
data_BaLi2Ca2YbNdEuYGaFe3Sn6Mo3Os6PtI2Br
_symmetry_space_group_name_H-M   'P 1'
_cell_length_a   4.45434713
_cell_length_b   4.52607012
_cell_length_c   4.43166590
_cell_angle_alpha   77.37392426
_cell_angle_beta   73.87637329
_cell_angle_gamma   68.74763489
_symmetry_Int_Tables_number   1
_chemical_formula_structural   BaLi2Ca2YbNdEuYGaFe3Sn6Mo3Os6PtI2Br
_chemical_formula_sum
'Ba1 Li2 Ca2 Yb1 Nd1 Eu1 Y1 Ga1 Fe3 Sn6 Mo3 Os6 Pt1 I2 Br1'
_cell_volume   79.29700948
_cell_formula_units_Z   1
loop_
 _symmetry_equiv_pos_site_id
 _symmetry_equiv_pos_as_xyz
  1  'x, y, z'
loop_
 _atom_site_type_symbol
 _atom_site_label
 _atom_site_symmetry_multiplicity
 _atom_site_fract_x
 _atom_site_fract_y
 _atom_site_fract_z
 _atom_site_occupancy
  Ba  Ba3  1  0.03486061  0.07248078  0.89444536  1.0
  Li  Li0  1  0.14233381  0.22703429  0.92496622  1.0
  Li  Li30  1  0.40248588  0.95840526  0.61045283  1.0
  Ca  Ca10  1  0.65358907  0.85698104  0.79442793  1.0
  Ca  Ca25  1  0.64811283  0.28759739  0.22078636  1.0
  Yb  Yb1  1  0.63847506  0.72434193  0.43158317  1.0
  Nd  Nd14  1  0.41601545  0.34725890  0.30051669  1.0
  Eu  Eu26  1  0.16581091  0.62345672  0.00025833  1.0
  Y  Y6  1  0.53363490  0.57049853  0.39117655  1.0
  Ga  Ga2  1  0.03242998  0.57027388  0.19516706  1.0
  Fe  Fe20  1  0.90555125  0.95873684  0.60760677  1.0
  Fe  Fe22  1  0.97757012  0.33746362  0.49411684  1.0
  Fe  Fe29  1  0.82333302  0.58054966  0.72649443  1.0
  Sn  Sn21  1  0.23418865  0.60679352  0.49214715  1.0
  Sn  Sn23  1  0.76986730  0.73779058  0.36993137  1.0
  Sn  Sn24  1  0.62814260  0.83196282  0.97058725  1.0
  Sn  Sn27  1  0.57928979  0.30879337  0.72616267  1.0
  Sn  Sn28  1  0.03696309  0.17877010  0.85221231  1.0
  Sn  Sn31  1  0.18255074  0.08216582  0.25352019  1.0
  Mo  Mo16  1  0.79365981  0.97675723  0.23445681  1.0
  Mo  Mo17  1  0.79019362  0.46883047  0.73661584  1.0
  Mo  Mo18  1  0.29222423  0.97368646  0.73145729  1.0
  Os  Os8  1  0.05100789  0.31283295  0.01091085  1.0
  Os  Os9  1  0.33999002  0.55775934  0.76305109  1.0
  Os  Os11  1  0.19315968  0.94250709  0.39467296  1.0
  Os  Os12  1  0.73426878  0.63515174  0.32930440  1.0
  Os  Os13  1  0.88363123  0.25747657  0.69728696  1.0
  Os  Os15  1  0.01270447  0.89256120  0.07866278  1.0
  Pt  Pt19  1  0.29281256  0.47415826  0.22769286  1.0
  I  I5  1  0.53819603  0.07274558  0.38722008  1.0
  I  I7  1  0.53667462  0.57069719  0.89084780  1.0
  Br  Br4  1  0.03056336  0.57716763  0.58053696  1.0
