# generated using pymatgen
data_Rb2BaNa2AcLaMg2ScMn2Tl2Fe2CuSiNiHgN
_symmetry_space_group_name_H-M   'P 1'
_cell_length_a   3.56896901
_cell_length_b   5.67572880
_cell_length_c   6.40948486
_cell_angle_alpha   91.83692169
_cell_angle_beta   90.69073486
_cell_angle_gamma   92.64938354
_symmetry_Int_Tables_number   1
_chemical_formula_structural   Rb2BaNa2AcLaMg2ScMn2Tl2Fe2CuSiNiHgN
_chemical_formula_sum
'Rb2 Ba1 Na2 Ac1 La1 Mg2 Sc1 Mn2 Tl2 Fe2 Cu1 Si1 Ni1 Hg1 N1'
_cell_volume   129.61638788
_cell_formula_units_Z   1
loop_
 _symmetry_equiv_pos_site_id
 _symmetry_equiv_pos_as_xyz
  1  'x, y, z'
loop_
 _atom_site_type_symbol
 _atom_site_label
 _atom_site_symmetry_multiplicity
 _atom_site_fract_x
 _atom_site_fract_y
 _atom_site_fract_z
 _atom_site_occupancy
  Rb  Rb14  1  0.86123693  0.18656175  0.62393647  1.0
  Rb  Rb15  1  0.06796548  0.56364727  0.20311666  1.0
  Ba  Ba9  1  0.57198846  0.12752187  0.94956172  1.0
  Na  Na6  1  0.57528239  0.62585455  0.45316708  1.0
  Na  Na10  1  0.07264841  0.12420716  0.45273599  1.0
  Ac  Ac20  1  0.86672854  0.75812542  0.72708303  1.0
  La  La2  1  0.78545707  0.14396214  0.60869825  1.0
  Mg  Mg4  1  0.28698072  0.64560151  0.84439099  1.0
  Mg  Mg5  1  0.27409396  0.64321756  0.36304054  1.0
  Sc  Sc12  1  0.11158974  0.16125490  0.70833665  1.0
  Mn  Mn7  1  0.07465023  0.62801057  0.73770809  1.0
  Mn  Mn8  1  0.07022592  0.62333113  0.16499831  1.0
  Tl  Tl16  1  0.57834309  0.06064759  0.16967341  1.0
  Tl  Tl18  1  0.35464466  0.68824267  0.64890051  1.0
  Fe  Fe0  1  0.78509223  0.87151992  0.10625643  1.0
  Fe  Fe3  1  0.78308678  0.41401976  0.10464045  1.0
  Cu  Cu17  1  0.17604867  0.96779269  0.97282070  1.0
  Si  Si1  1  0.28023809  0.14483289  0.10872788  1.0
  Ni  Ni19  1  0.76877892  0.77348214  0.84399772  1.0
  Hg  Hg13  1  0.59606457  0.65755188  0.20695814  1.0
  N  N11  1  0.07467663  0.62417716  0.45919788  1.0
