# generated using pymatgen
data_K2BaSrPr2Mg9TiNbZn2Te6AuC2SI
_symmetry_space_group_name_H-M   'P 1'
_cell_length_a   3.13711596
_cell_length_b   3.52008033
_cell_length_c   4.38196707
_cell_angle_alpha   104.63554382
_cell_angle_beta   98.77011871
_cell_angle_gamma   110.98785400
_symmetry_Int_Tables_number   1
_chemical_formula_structural   K2BaSrPr2Mg9TiNbZn2Te6AuC2SI
_chemical_formula_sum
'K2 Ba1 Sr1 Pr2 Mg9 Ti1 Nb1 Zn2 Te6 Au1 C2 S1 I1'
_cell_volume   42.10254168
_cell_formula_units_Z   1
loop_
 _symmetry_equiv_pos_site_id
 _symmetry_equiv_pos_as_xyz
  1  'x, y, z'
loop_
 _atom_site_type_symbol
 _atom_site_label
 _atom_site_symmetry_multiplicity
 _atom_site_fract_x
 _atom_site_fract_y
 _atom_site_fract_z
 _atom_site_occupancy
  K  K27  1  0.13060074  0.56189919  0.25312781  1.0
  K  K29  1  0.12857701  0.06199617  0.75472009  1.0
  Ba  Ba16  1  0.67147893  0.44702747  0.82246327  1.0
  Sr  Sr11  1  0.19379748  0.72037798  0.42474398  1.0
  Pr  Pr18  1  0.16621622  0.50091916  0.05586519  1.0
  Pr  Pr22  1  0.05933991  0.11164874  0.68162334  1.0
  Mg  Mg1  1  0.96935910  0.28299239  0.31862971  1.0
  Mg  Mg10  1  0.20785660  0.21241543  0.94702679  1.0
  Mg  Mg12  1  0.21267402  0.80967498  0.97352344  1.0
  Mg  Mg13  1  0.66291738  0.36591318  0.28854355  1.0
  Mg  Mg14  1  0.66010511  0.95739138  0.31212074  1.0
  Mg  Mg15  1  0.71049738  0.95615375  0.82947636  1.0
  Mg  Mg17  1  0.16102426  0.20923088  0.40955013  1.0
  Mg  Mg19  1  0.44218469  0.55692375  0.46531612  1.0
  Mg  Mg20  1  0.78309947  0.04678062  0.27147385  1.0
  Ti  Ti5  1  0.33270910  0.40623948  0.86261636  1.0
  Nb  Nb9  1  0.83221108  0.40776277  0.86184573  1.0
  Zn  Zn21  1  0.45761937  0.92005628  0.05839163  1.0
  Zn  Zn23  1  0.77563351  0.68475330  0.67560232  1.0
  Te  Te2  1  0.58466572  0.74213928  0.86509717  1.0
  Te  Te3  1  0.58280826  0.40145323  0.19328672  1.0
  Te  Te4  1  0.08067942  0.40368280  0.52966619  1.0
  Te  Te6  1  0.08501378  0.73671001  0.19124408  1.0
  Te  Te7  1  0.08500714  0.07309703  0.85903555  1.0
  Te  Te8  1  0.58367425  0.07821790  0.53272367  1.0
  Au  Au28  1  0.62714916  0.56747001  0.75826031  1.0
  C  C24  1  0.00066696  0.56242567  0.75227803  1.0
  C  C26  1  0.24729629  0.56348127  0.75721693  1.0
  S  S0  1  0.47161329  0.27697110  0.82954389  1.0
  I  I25  1  0.63450855  0.06521565  0.25303560  1.0
