data_image0
_chemical_formula_structural       Fe6NiFeNiFeNiFe
_chemical_formula_sum              "Fe9 Ni3"
_cell_length_a       4.03254
_cell_length_b       4.76081
_cell_length_c       8.38083
_cell_angle_alpha    75.1264
_cell_angle_beta     76.1277
_cell_angle_gamma    64.9315

_space_group_name_H-M_alt    "P 1"
_space_group_IT_number       1

loop_
  _space_group_symop_operation_xyz
  'x, y, z'

loop_
  _atom_site_type_symbol
  _atom_site_label
  _atom_site_symmetry_multiplicity
  _atom_site_fract_x
  _atom_site_fract_y
  _atom_site_fract_z
  _atom_site_occupancy
  Fe  Fe1       1.0  0.16480  0.10263  0.53027  1.0000
  Fe  Fe2       1.0  0.99918  0.93559  0.02746  1.0000
  Fe  Fe3       1.0  0.83081  0.76826  0.53382  1.0000
  Fe  Fe4       1.0  0.91550  0.35078  0.77964  1.0000
  Fe  Fe5       1.0  0.66576  0.60314  0.02697  1.0000
  Fe  Fe6       1.0  0.07824  0.52491  0.28032  1.0000
  Ni  Ni1       1.0  0.25208  0.67731  0.77999  1.0000
  Fe  Fe7       1.0  0.49859  0.43693  0.52850  1.0000
  Ni  Ni2       1.0  0.57656  0.02712  0.78128  1.0000
  Fe  Fe8       1.0  0.32987  0.26750  0.03553  1.0000
  Ni  Ni3       1.0  0.74867  0.18498  0.28008  1.0000
  Fe  Fe9       1.0  0.41740  0.84729  0.28052  1.0000
