data_La1Co1O3
_symmetry_space_group_name_H-M Pnma
_cell_length_a 5.6142
_cell_length_b 3.6273
_cell_length_c 5.2932
_cell_angle_alpha 90.0000
_cell_angle_beta 90.0000
_cell_angle_gamma 90.0000
_symmetry_Int_Tables_number 62
_chemical_formula_structural LaCoO3
_chemical_formula_sum 'La4 Co4 O12'
_cell_volume 107.6642
_cell_formula_units_Z 4
loop_
 _symmetry_equiv_pos_site_id
 _symmetry_equiv_pos_as_xyz
  1  '-x, y+1/2, -z'
  2  '-x, -y, -z'
  3  '-x+1/2, -y, z+1/2'
  4  'x+1/2, -y+1/2, -z+1/2'
  5  'x, y, z'
  6  'x-1/2, y, -z-1/2'
  7  '-x-1/2, y-1/2, z-1/2'
  8  'x, -y-1/2, z'
loop_
_atom_site_type_symbol
_atom_site_label
_atom_site_symmetry_multiplicity
_atom_site_fract_x
_atom_site_fract_y
_atom_site_fract_z
_atom_site_occupancy
La La0 4 0.0216 0.2500 0.0043 1
Co Co1 4 0.0000 0.0000 0.5000 1
O O2 8 0.2270 0.5275 0.2385 1
O O3 4 0.0005 0.7500 0.5532 1

