data_La1Fe1O3
_symmetry_space_group_name_H-M Pnma
_cell_length_a 5.5775
_cell_length_b 3.8007
_cell_length_c 7.6136
_cell_angle_alpha 90.0000
_cell_angle_beta 90.0000
_cell_angle_gamma 90.0000
_symmetry_Int_Tables_number 62
_chemical_formula_structural LaFeO3
_chemical_formula_sum 'La4 Fe4 O12'
_cell_volume 161.3088
_cell_formula_units_Z 4
loop_
 _symmetry_equiv_pos_site_id
 _symmetry_equiv_pos_as_xyz
  1  '-x, y+1/2, -z'
  2  '-x, -y, -z'
  3  '-x+1/2, -y, z+1/2'
  4  'x+1/2, -y+1/2, -z+1/2'
  5  'x, y, z'
  6  'x-1/2, y, -z-1/2'
  7  '-x-1/2, y-1/2, z-1/2'
  8  'x, -y-1/2, z'
loop_
_atom_site_type_symbol
_atom_site_label
_atom_site_symmetry_multiplicity
_atom_site_fract_x
_atom_site_fract_y
_atom_site_fract_z
_atom_site_occupancy
La La0 4 0.2472 0.7500 0.5917 1
Fe Fe1 4 0.0007 0.2500 0.7523 1
O O2 4 0.0064 0.2500 0.5994 1
O O3 4 0.0168 0.2500 0.2848 1
O O4 4 0.2451 0.2500 0.8908 1

