data_Sm1Fe1O3
_symmetry_space_group_name_H-M Pnma
_cell_length_a 5.5822
_cell_length_b 7.6462
_cell_length_c 5.3140
_cell_angle_alpha 90.0000
_cell_angle_beta 90.0000
_cell_angle_gamma 90.0000
_symmetry_Int_Tables_number 62
_chemical_formula_structural SmFeO3
_chemical_formula_sum 'Sm12 Fe12 O36'
_cell_volume 227.2847
_cell_formula_units_Z 12
loop_
 _symmetry_equiv_pos_site_id
 _symmetry_equiv_pos_as_xyz
  1  '-x, y+1/2, -z'
  2  '-x, -y, -z'
  3  '-x+1/2, -y, z+1/2'
  4  'x+1/2, -y+1/2, -z+1/2'
  5  'x, y, z'
  6  'x-1/2, y, -z-1/2'
  7  '-x-1/2, y-1/2, z-1/2'
  8  'x, -y-1/2, z'
loop_
_atom_site_type_symbol
_atom_site_label
_atom_site_symmetry_multiplicity
_atom_site_fract_x
_atom_site_fract_y
_atom_site_fract_z
_atom_site_occupancy
Sm Sm0 8 0.1930 0.0645 0.3866 1
Sm Sm1 4 0.0298 0.2500 0.0186 1
Fe Fe2 8 0.1447 0.6023 0.5955 1
Fe Fe3 4 0.1568 0.2500 0.6480 1
O O4 8 0.0261 0.0886 0.0424 1
O O5 8 0.0419 0.6709 0.4135 1
O O6 8 0.2165 0.1030 0.7168 1
O O7 8 0.2272 0.5333 0.7785 1
O O8 4 0.0914 0.7500 0.8800 1

