data_Sm1Cr1O3
_symmetry_space_group_name_H-M Pnma
_cell_length_a 5.6813
_cell_length_b 7.5252
_cell_length_c 5.2683
_cell_angle_alpha 90.0000
_cell_angle_beta 90.0000
_cell_angle_gamma 90.0000
_symmetry_Int_Tables_number 62
_chemical_formula_structural SmCrO3
_chemical_formula_sum 'Sm12 Cr12 O36'
_cell_volume 225.8849
_cell_formula_units_Z 12
loop_
 _symmetry_equiv_pos_site_id
 _symmetry_equiv_pos_as_xyz
  1  '-x, y+1/2, -z'
  2  '-x, -y, -z'
  3  '-x+1/2, -y, z+1/2'
  4  'x+1/2, -y+1/2, -z+1/2'
  5  'x, y, z'
  6  'x-1/2, y, -z-1/2'
  7  '-x-1/2, y-1/2, z-1/2'
  8  'x, -y-1/2, z'
loop_
_atom_site_type_symbol
_atom_site_label
_atom_site_symmetry_multiplicity
_atom_site_fract_x
_atom_site_fract_y
_atom_site_fract_z
_atom_site_occupancy
Sm Sm0 8 0.1930 0.0591 0.0436 1
Sm Sm1 4 0.0233 0.2500 0.5863 1
Cr Cr2 8 0.1306 0.5046 0.5648 1
Cr Cr3 4 0.0583 0.7500 0.0280 1
O O4 8 0.0169 0.5817 0.7818 1
O O5 8 0.1108 0.0707 0.4362 1
O O6 8 0.2005 0.6147 0.1566 1
O O7 4 0.0784 0.2500 0.9672 1
O O8 4 0.1651 0.7500 0.5639 1
O O9 4 0.1834 0.2500 0.3479 1

