data_Ca1Co1O3
_symmetry_space_group_name_H-M Pnma
_cell_length_a 5.0232
_cell_length_b 3.3038
_cell_length_c 5.3903
_cell_angle_alpha 90.0000
_cell_angle_beta 90.0000
_cell_angle_gamma 90.0000
_symmetry_Int_Tables_number 62
_chemical_formula_structural CaCoO3
_chemical_formula_sum 'Ca4 Co4 O12'
_cell_volume 89.8248
_cell_formula_units_Z 4
loop_
 _symmetry_equiv_pos_site_id
 _symmetry_equiv_pos_as_xyz
  1  '-x, y+1/2, -z'
  2  '-x, -y, -z'
  3  '-x+1/2, -y, z+1/2'
  4  'x+1/2, -y+1/2, -z+1/2'
  5  'x, y, z'
  6  'x-1/2, y, -z-1/2'
  7  '-x-1/2, y-1/2, z-1/2'
  8  'x, -y-1/2, z'
loop_
_atom_site_type_symbol
_atom_site_label
_atom_site_symmetry_multiplicity
_atom_site_fract_x
_atom_site_fract_y
_atom_site_fract_z
_atom_site_occupancy
Ca Ca0 4 0.0159 0.2500 0.0027 1
Co Co1 4 0.0000 0.0000 0.5000 1
O O2 8 0.2376 0.5129 0.7630 1
O O3 4 0.0027 0.7500 0.4720 1

