data_Nd1Fe1O3
_symmetry_space_group_name_H-M Pnma
_cell_length_a 5.6365
_cell_length_b 3.6564
_cell_length_c 7.9221
_cell_angle_alpha 90.0000
_cell_angle_beta 90.0000
_cell_angle_gamma 90.0000
_symmetry_Int_Tables_number 62
_chemical_formula_structural NdFeO3
_chemical_formula_sum 'Nd4 Fe4 O12'
_cell_volume 163.8545
_cell_formula_units_Z 4
loop_
 _symmetry_equiv_pos_site_id
 _symmetry_equiv_pos_as_xyz
  1  '-x, y+1/2, -z'
  2  '-x, -y, -z'
  3  '-x+1/2, -y, z+1/2'
  4  'x+1/2, -y+1/2, -z+1/2'
  5  'x, y, z'
  6  'x-1/2, y, -z-1/2'
  7  '-x-1/2, y-1/2, z-1/2'
  8  'x, -y-1/2, z'
loop_
_atom_site_type_symbol
_atom_site_label
_atom_site_symmetry_multiplicity
_atom_site_fract_x
_atom_site_fract_y
_atom_site_fract_z
_atom_site_occupancy
Nd Nd0 4 0.2399 0.7500 0.9089 1
Fe Fe1 4 0.0052 0.7500 0.2540 1
O O2 4 0.0062 0.7500 0.6149 1
O O3 4 0.0463 0.7500 0.1117 1
O O4 4 0.2462 0.7500 0.3462 1

