data_Ba1Mn1O3
_symmetry_space_group_name_H-M Pnma
_cell_length_a 5.5304
_cell_length_b 3.8369
_cell_length_c 8.5370
_cell_angle_alpha 90.0000
_cell_angle_beta 90.0000
_cell_angle_gamma 90.0000
_symmetry_Int_Tables_number 62
_chemical_formula_structural BaMnO3
_chemical_formula_sum 'Ba12 Mn12 O36'
_cell_volume 181.7681
_cell_formula_units_Z 12
loop_
 _symmetry_equiv_pos_site_id
 _symmetry_equiv_pos_as_xyz
  1  '-x, y+1/2, -z'
  2  '-x, -y, -z'
  3  '-x+1/2, -y, z+1/2'
  4  'x+1/2, -y+1/2, -z+1/2'
  5  'x, y, z'
  6  'x-1/2, y, -z-1/2'
  7  '-x-1/2, y-1/2, z-1/2'
  8  'x, -y-1/2, z'
loop_
_atom_site_type_symbol
_atom_site_label
_atom_site_symmetry_multiplicity
_atom_site_fract_x
_atom_site_fract_y
_atom_site_fract_z
_atom_site_occupancy
Ba Ba0 4 0.1119 0.2500 0.1697 1
Ba Ba1 4 0.1777 0.2500 0.5070 1
Ba Ba2 4 0.1840 0.7500 0.3167 1
Mn Mn3 4 0.0774 0.2500 0.8691 1
Mn Mn4 4 0.0840 0.7500 0.9145 1
Mn Mn5 4 0.0854 0.2500 0.6442 1
O O6 4 0.0224 0.2500 0.7099 1
O O7 4 0.0552 0.7500 0.6160 1
O O8 4 0.0653 0.2500 0.9536 1
O O9 4 0.1131 0.7500 0.7783 1
O O10 4 0.1409 0.7500 0.0621 1
O O11 4 0.1448 0.2500 0.8709 1
O O12 4 0.1551 0.7500 0.4587 1
O O13 4 0.1806 0.2500 0.6386 1
O O14 4 0.2048 0.2500 0.3127 1

