data_Sr1Mn1O3
_symmetry_space_group_name_H-M Pnma
_cell_length_a 5.8479
_cell_length_b 3.4398
_cell_length_c 6.3970
_cell_angle_alpha 90.0000
_cell_angle_beta 90.0000
_cell_angle_gamma 90.0000
_symmetry_Int_Tables_number 62
_chemical_formula_structural SrMnO3
_chemical_formula_sum 'Sr1 Mn1 O3'
_cell_volume 128.1686
_cell_formula_units_Z 1
loop_
 _symmetry_equiv_pos_site_id
 _symmetry_equiv_pos_as_xyz
  1  '-x, y+1/2, -z'
  2  '-x, -y, -z'
  3  '-x+1/2, -y, z+1/2'
  4  'x+1/2, -y+1/2, -z+1/2'
  5  'x, y, z'
  6  'x-1/2, y, -z-1/2'
  7  '-x-1/2, y-1/2, z-1/2'
  8  'x, -y-1/2, z'
loop_
_atom_site_type_symbol
_atom_site_label
_atom_site_symmetry_multiplicity
_atom_site_fract_x
_atom_site_fract_y
_atom_site_fract_z
_atom_site_occupancy
Sr Sr0 4 0.0093 0.2500 0.3900 1
Mn Mn1 1 0.5000 0.0000 0.0000 1
O O2 4 0.2090 0.7500 0.1049 1
O O3 4 0.2452 0.2500 0.0638 1

