data_Nd1Mn1O3
_symmetry_space_group_name_H-M Pnma
_cell_length_a 5.7476
_cell_length_b 3.6403
_cell_length_c 5.6209
_cell_angle_alpha 90.0000
_cell_angle_beta 90.0000
_cell_angle_gamma 90.0000
_symmetry_Int_Tables_number 62
_chemical_formula_structural NdMnO3
_chemical_formula_sum 'Nd12 Mn12 O12'
_cell_volume 117.6254
_cell_formula_units_Z 12
loop_
 _symmetry_equiv_pos_site_id
 _symmetry_equiv_pos_as_xyz
  1  '-x, y+1/2, -z'
  2  '-x, -y, -z'
  3  '-x+1/2, -y, z+1/2'
  4  'x+1/2, -y+1/2, -z+1/2'
  5  'x, y, z'
  6  'x-1/2, y, -z-1/2'
  7  '-x-1/2, y-1/2, z-1/2'
  8  'x, -y-1/2, z'
loop_
_atom_site_type_symbol
_atom_site_label
_atom_site_symmetry_multiplicity
_atom_site_fract_x
_atom_site_fract_y
_atom_site_fract_z
_atom_site_occupancy
Nd Nd0 4 0.0469 0.2500 0.5114 1
Nd Nd1 4 0.1984 0.7500 0.9956 1
Nd Nd2 4 0.2500 0.5000 0.4964 1
Mn Mn3 8 0.0619 0.5008 0.9929 1
Mn Mn4 4 0.1231 0.2500 0.0068 1
O O5 8 0.0862 0.0346 0.2276 1
O O6 4 0.1647 0.7500 0.7325 1
O O7 4 0.2458 0.2500 0.7609 1

