data_Pr1Fe1O3
_symmetry_space_group_name_H-M Pnma
_cell_length_a 5.5834
_cell_length_b 3.6235
_cell_length_c 5.4911
_cell_angle_alpha 90.0000
_cell_angle_beta 90.0000
_cell_angle_gamma 90.0000
_symmetry_Int_Tables_number 62
_chemical_formula_structural PrFeO3
_chemical_formula_sum 'Pr12 Fe12 O36'
_cell_volume 111.0749
_cell_formula_units_Z 12
loop_
 _symmetry_equiv_pos_site_id
 _symmetry_equiv_pos_as_xyz
  1  '-x, y+1/2, -z'
  2  '-x, -y, -z'
  3  '-x+1/2, -y, z+1/2'
  4  'x+1/2, -y+1/2, -z+1/2'
  5  'x, y, z'
  6  'x-1/2, y, -z-1/2'
  7  '-x-1/2, y-1/2, z-1/2'
  8  'x, -y-1/2, z'
loop_
_atom_site_type_symbol
_atom_site_label
_atom_site_symmetry_multiplicity
_atom_site_fract_x
_atom_site_fract_y
_atom_site_fract_z
_atom_site_occupancy
Pr Pr0 4 0.0694 0.7500 0.9764 1
Pr Pr1 4 0.0953 0.2500 0.5352 1
Pr Pr2 4 0.2155 0.7500 0.5166 1
Fe Fe3 4 0.1522 0.2500 0.9932 1
Fe Fe4 4 0.1709 0.7500 0.0016 1
Fe Fe5 4 0.2344 0.2500 0.5092 1
O O6 4 0.0074 0.2500 0.2388 1
O O7 4 0.0638 0.2500 0.9497 1
O O8 4 0.0797 0.7500 0.5396 1
O O9 4 0.1229 0.7500 0.2213 1
O O10 4 0.1478 0.2500 0.2332 1
O O11 4 0.1847 0.7500 0.7826 1
O O12 4 0.1998 0.2500 0.7737 1
O O13 4 0.2500 0.7500 0.1551 1
O O14 4 0.2500 0.7500 0.8597 1

