data_Ba1Fe1O3
_symmetry_space_group_name_H-M Pnma
_cell_length_a 5.9797
_cell_length_b 3.4769
_cell_length_c 7.0817
_cell_angle_alpha 90.0000
_cell_angle_beta 90.0000
_cell_angle_gamma 90.0000
_symmetry_Int_Tables_number 62
_chemical_formula_structural BaFeO3
_chemical_formula_sum 'Ba12 Fe12 O36'
_cell_volume 146.9873
_cell_formula_units_Z 12
loop_
 _symmetry_equiv_pos_site_id
 _symmetry_equiv_pos_as_xyz
  1  '-x, y+1/2, -z'
  2  '-x, -y, -z'
  3  '-x+1/2, -y, z+1/2'
  4  'x+1/2, -y+1/2, -z+1/2'
  5  'x, y, z'
  6  'x-1/2, y, -z-1/2'
  7  '-x-1/2, y-1/2, z-1/2'
  8  'x, -y-1/2, z'
loop_
_atom_site_type_symbol
_atom_site_label
_atom_site_symmetry_multiplicity
_atom_site_fract_x
_atom_site_fract_y
_atom_site_fract_z
_atom_site_occupancy
Ba Ba0 4 0.0445 0.2500 0.1715 1
Ba Ba1 4 0.1813 0.7500 0.3940 1
Ba Ba2 4 0.1826 0.2500 0.5986 1
Fe Fe3 4 0.0696 0.7500 0.1196 1
Fe Fe4 4 0.0812 0.2500 0.9098 1
Fe Fe5 4 0.1914 0.7500 0.8018 1
O O6 4 0.0253 0.2500 0.6104 1
O O7 4 0.0405 0.7500 0.7787 1
O O8 4 0.0958 0.7500 0.0163 1
O O9 4 0.1060 0.7500 0.6334 1
O O10 4 0.1168 0.2500 0.7901 1
O O11 4 0.1900 0.7500 0.8779 1
O O12 4 0.2110 0.2500 0.0368 1
O O13 4 0.2198 0.2500 0.2638 1
O O14 4 0.2370 0.2500 0.7691 1

