data_Pr1Cr1O3
_symmetry_space_group_name_H-M Pnma
_cell_length_a 5.6109
_cell_length_b 7.6717
_cell_length_c 5.3816
_cell_angle_alpha 90.0000
_cell_angle_beta 90.0000
_cell_angle_gamma 90.0000
_symmetry_Int_Tables_number 62
_chemical_formula_structural PrCrO3
_chemical_formula_sum 'Pr12 Cr12 O36'
_cell_volume 232.9238
_cell_formula_units_Z 12
loop_
 _symmetry_equiv_pos_site_id
 _symmetry_equiv_pos_as_xyz
  1  '-x, y+1/2, -z'
  2  '-x, -y, -z'
  3  '-x+1/2, -y, z+1/2'
  4  'x+1/2, -y+1/2, -z+1/2'
  5  'x, y, z'
  6  'x-1/2, y, -z-1/2'
  7  '-x-1/2, y-1/2, z-1/2'
  8  'x, -y-1/2, z'
loop_
_atom_site_type_symbol
_atom_site_label
_atom_site_symmetry_multiplicity
_atom_site_fract_x
_atom_site_fract_y
_atom_site_fract_z
_atom_site_occupancy
Pr Pr0 8 0.2434 0.0099 0.5212 1
Pr Pr1 4 0.0151 0.2500 0.0214 1
Cr Cr2 8 0.0003 0.5025 0.7449 1
Cr Cr3 4 0.0000 0.0000 0.0000 1
O O4 8 0.0170 0.5561 0.0370 1
O O5 8 0.0253 0.5670 0.4620 1
O O6 8 0.2202 0.0222 0.2222 1
O O7 4 0.0060 0.7500 0.7753 1
O O8 4 0.2029 0.7500 0.2970 1
O O9 4 0.2069 0.2500 0.4278 1

