data_Sm1Fe1O3
_symmetry_space_group_name_H-M Pnma
_cell_length_a 5.6842
_cell_length_b 7.6401
_cell_length_c 5.3158
_cell_angle_alpha 90.0000
_cell_angle_beta 90.0000
_cell_angle_gamma 90.0000
_symmetry_Int_Tables_number 62
_chemical_formula_structural SmFeO3
_chemical_formula_sum 'Sm12 Fe12 O36'
_cell_volume 232.0326
_cell_formula_units_Z 12
loop_
 _symmetry_equiv_pos_site_id
 _symmetry_equiv_pos_as_xyz
  1  '-x, y+1/2, -z'
  2  '-x, -y, -z'
  3  '-x+1/2, -y, z+1/2'
  4  'x+1/2, -y+1/2, -z+1/2'
  5  'x, y, z'
  6  'x-1/2, y, -z-1/2'
  7  '-x-1/2, y-1/2, z-1/2'
  8  'x, -y-1/2, z'
loop_
_atom_site_type_symbol
_atom_site_label
_atom_site_symmetry_multiplicity
_atom_site_fract_x
_atom_site_fract_y
_atom_site_fract_z
_atom_site_occupancy
Sm Sm0 8 0.1720 0.0060 0.9716 1
Sm Sm1 4 0.0197 0.7500 0.5070 1
Fe Fe2 8 0.1392 0.0022 0.4649 1
Fe Fe3 4 0.0000 0.0000 0.0000 1
O O4 8 0.0079 0.0363 0.2280 1
O O5 8 0.0785 0.2015 0.7685 1
O O6 8 0.2117 0.6472 0.8950 1
O O7 8 0.2121 0.5334 0.2188 1
O O8 4 0.1434 0.2500 0.3495 1

