data_Sr1Cr1O3
_symmetry_space_group_name_H-M Pnma
_cell_length_a 6.7171
_cell_length_b 3.4224
_cell_length_c 5.9619
_cell_angle_alpha 90.0000
_cell_angle_beta 90.0000
_cell_angle_gamma 90.0000
_symmetry_Int_Tables_number 62
_chemical_formula_structural SrCrO3
_chemical_formula_sum 'Sr12 Cr12 O36'
_cell_volume 137.6433
_cell_formula_units_Z 12
loop_
 _symmetry_equiv_pos_site_id
 _symmetry_equiv_pos_as_xyz
  1  '-x, y+1/2, -z'
  2  '-x, -y, -z'
  3  '-x+1/2, -y, z+1/2'
  4  'x+1/2, -y+1/2, -z+1/2'
  5  'x, y, z'
  6  'x-1/2, y, -z-1/2'
  7  '-x-1/2, y-1/2, z-1/2'
  8  'x, -y-1/2, z'
loop_
_atom_site_type_symbol
_atom_site_label
_atom_site_symmetry_multiplicity
_atom_site_fract_x
_atom_site_fract_y
_atom_site_fract_z
_atom_site_occupancy
Sr Sr0 4 0.0808 0.7500 0.6713 1
Sr Sr1 4 0.0864 0.2500 0.9903 1
Sr Sr2 4 0.2481 0.2500 0.5148 1
Cr Cr3 4 0.0748 0.7500 0.2272 1
Cr Cr4 4 0.1251 0.2500 0.3510 1
Cr Cr5 4 0.2101 0.7500 0.3028 1
O O6 8 0.0028 0.5098 0.2959 1
O O7 8 0.1117 0.0065 0.4855 1
O O8 8 0.1911 0.0024 0.1476 1
O O9 4 0.0695 0.2500 0.7486 1
O O10 4 0.1209 0.7500 0.8608 1
O O11 4 0.2028 0.2500 0.8581 1

