data_Ca1Ni1O3
_symmetry_space_group_name_H-M Pnma
_cell_length_a 5.6086
_cell_length_b 3.0324
_cell_length_c 5.8326
_cell_angle_alpha 90.0000
_cell_angle_beta 90.0000
_cell_angle_gamma 90.0000
_symmetry_Int_Tables_number 62
_chemical_formula_structural CaNiO3
_chemical_formula_sum 'Ca2 Ni2 O6'
_cell_volume 99.1947
_cell_formula_units_Z 2
loop_
 _symmetry_equiv_pos_site_id
 _symmetry_equiv_pos_as_xyz
  1  '-x, y+1/2, -z'
  2  '-x, -y, -z'
  3  '-x+1/2, -y, z+1/2'
  4  'x+1/2, -y+1/2, -z+1/2'
  5  'x, y, z'
  6  'x-1/2, y, -z-1/2'
  7  '-x-1/2, y-1/2, z-1/2'
  8  'x, -y-1/2, z'
loop_
_atom_site_type_symbol
_atom_site_label
_atom_site_symmetry_multiplicity
_atom_site_fract_x
_atom_site_fract_y
_atom_site_fract_z
_atom_site_occupancy
Ca Ca0 2 0.2421 0.7500 0.6067 1
Ni Ni1 2 0.2394 0.7500 0.1079 1
O O2 4 0.0491 0.2500 0.8281 1
O O3 2 0.4105 0.2500 0.4150 1

