data_Ba1Cr1O3
_symmetry_space_group_name_H-M Pnma
_cell_length_a 5.9247
_cell_length_b 7.8895
_cell_length_c 5.0658
_cell_angle_alpha 90.0000
_cell_angle_beta 90.0000
_cell_angle_gamma 90.0000
_symmetry_Int_Tables_number 62
_chemical_formula_structural BaCrO3
_chemical_formula_sum 'Ba12 Cr12 O36'
_cell_volume 235.9137
_cell_formula_units_Z 12
loop_
 _symmetry_equiv_pos_site_id
 _symmetry_equiv_pos_as_xyz
  1  '-x, y+1/2, -z'
  2  '-x, -y, -z'
  3  '-x+1/2, -y, z+1/2'
  4  'x+1/2, -y+1/2, -z+1/2'
  5  'x, y, z'
  6  'x-1/2, y, -z-1/2'
  7  '-x-1/2, y-1/2, z-1/2'
  8  'x, -y-1/2, z'
loop_
_atom_site_type_symbol
_atom_site_label
_atom_site_symmetry_multiplicity
_atom_site_fract_x
_atom_site_fract_y
_atom_site_fract_z
_atom_site_occupancy
Ba Ba0 8 0.1662 0.5004 0.9237 1
Ba Ba1 4 0.0004 0.7500 0.4968 1
Cr Cr2 8 0.1660 0.1249 0.4948 1
Cr Cr3 4 0.0000 0.0000 0.0000 1
O O4 8 0.0735 0.0572 0.2229 1
O O5 8 0.0767 0.6038 0.2257 1
O O6 8 0.2349 0.1017 0.8158 1
O O7 4 0.0000 0.2500 0.4840 1
O O8 4 0.1694 0.2500 0.9811 1
O O9 4 0.1724 0.7500 0.9983 1

