data_Nd1Fe1O3
_symmetry_space_group_name_H-M Pnma
_cell_length_a 5.5343
_cell_length_b 3.6930
_cell_length_c 5.4312
_cell_angle_alpha 90.0000
_cell_angle_beta 90.0000
_cell_angle_gamma 90.0000
_symmetry_Int_Tables_number 62
_chemical_formula_structural NdFeO3
_chemical_formula_sum 'Nd12 Fe14 O36'
_cell_volume 111.2077
_cell_formula_units_Z 12
loop_
 _symmetry_equiv_pos_site_id
 _symmetry_equiv_pos_as_xyz
  1  '-x, y+1/2, -z'
  2  '-x, -y, -z'
  3  '-x+1/2, -y, z+1/2'
  4  'x+1/2, -y+1/2, -z+1/2'
  5  'x, y, z'
  6  'x-1/2, y, -z-1/2'
  7  '-x-1/2, y-1/2, z-1/2'
  8  'x, -y-1/2, z'
loop_
_atom_site_type_symbol
_atom_site_label
_atom_site_symmetry_multiplicity
_atom_site_fract_x
_atom_site_fract_y
_atom_site_fract_z
_atom_site_occupancy
Nd Nd0 4 0.0480 0.7500 0.5111 1
Nd Nd1 4 0.1808 0.7500 0.0093 1
Nd Nd2 4 0.1876 0.2500 0.0087 1
Fe Fe3 4 0.0077 0.7500 0.7532 1
Fe Fe4 4 0.0654 0.2500 0.5086 1
Fe Fe5 4 0.2490 0.7500 0.5016 1
Fe Fe6 4 0.2500 0.5000 0.5009 1
Fe Fe7 4 0.2500 0.5000 0.9970 1
O O8 8 0.0679 0.0320 0.8916 1
O O9 8 0.0682 0.5309 0.3712 1
O O10 8 0.1792 0.5327 0.6299 1
O O11 8 0.1819 0.5336 0.1341 1
O O12 4 0.0428 0.2500 0.1737 1
O O13 4 0.1937 0.2500 0.3950 1
O O14 4 0.1985 0.7500 0.3872 1

