data_Nd1Fe1O3
_symmetry_space_group_name_H-M Pnma
_cell_length_a 5.6353
_cell_length_b 3.7224
_cell_length_c 5.3745
_cell_angle_alpha 90.0000
_cell_angle_beta 90.0000
_cell_angle_gamma 90.0000
_symmetry_Int_Tables_number 62
_chemical_formula_structural NdFeO3
_chemical_formula_sum 'Nd12 Fe12 O36'
_cell_volume 112.8515
_cell_formula_units_Z 12
loop_
 _symmetry_equiv_pos_site_id
 _symmetry_equiv_pos_as_xyz
  1  '-x, y+1/2, -z'
  2  '-x, -y, -z'
  3  '-x+1/2, -y, z+1/2'
  4  'x+1/2, -y+1/2, -z+1/2'
  5  'x, y, z'
  6  'x-1/2, y, -z-1/2'
  7  '-x-1/2, y-1/2, z-1/2'
  8  'x, -y-1/2, z'
loop_
_atom_site_type_symbol
_atom_site_label
_atom_site_symmetry_multiplicity
_atom_site_fract_x
_atom_site_fract_y
_atom_site_fract_z
_atom_site_occupancy
Nd Nd0 4 0.0073 0.2500 0.0014 1
Nd Nd1 4 0.0098 0.7500 0.5050 1
Nd Nd2 4 0.2398 0.2500 0.4676 1
Fe Fe3 8 0.2477 0.0003 0.7624 1
Fe Fe4 4 0.0000 0.0000 0.5000 1
O O5 8 0.2462 0.0023 0.0270 1
O O6 8 0.2483 0.5548 0.2704 1
O O7 4 0.0000 0.0000 0.2629 1
O O8 4 0.0000 0.2500 0.4605 1
O O9 4 0.0000 0.2500 0.8311 1
O O10 4 0.0000 0.2500 0.1299 1

