data_Ca1Ni1O3
_symmetry_space_group_name_H-M Pnma
_cell_length_a 5.0693
_cell_length_b 3.2723
_cell_length_c 5.8317
_cell_angle_alpha 90.0000
_cell_angle_beta 90.0000
_cell_angle_gamma 90.0000
_symmetry_Int_Tables_number 62
_chemical_formula_structural CaNiO3
_chemical_formula_sum 'Ca1 Ni1 O3'
_cell_volume 96.4451
_cell_formula_units_Z 1
loop_
 _symmetry_equiv_pos_site_id
 _symmetry_equiv_pos_as_xyz
  1  '-x, y+1/2, -z'
  2  '-x, -y, -z'
  3  '-x+1/2, -y, z+1/2'
  4  'x+1/2, -y+1/2, -z+1/2'
  5  'x, y, z'
  6  'x-1/2, y, -z-1/2'
  7  '-x-1/2, y-1/2, z-1/2'
  8  'x, -y-1/2, z'
loop_
_atom_site_type_symbol
_atom_site_label
_atom_site_symmetry_multiplicity
_atom_site_fract_x
_atom_site_fract_y
_atom_site_fract_z
_atom_site_occupancy
Ca Ca0 4 0.0627 0.7500 0.7867 1
Ni Ni1 4 0.1845 0.7500 0.4529 1
O O2 4 0.1576 0.7500 0.1057 1
O O3 4 0.2217 0.2500 0.4387 1

