data_Sm1Co1O3
_symmetry_space_group_name_H-M Pnma
_cell_length_a 5.5109
_cell_length_b 7.4407
_cell_length_c 5.1649
_cell_angle_alpha 90.0000
_cell_angle_beta 90.0000
_cell_angle_gamma 90.0000
_symmetry_Int_Tables_number 62
_chemical_formula_structural SmCoO3
_chemical_formula_sum 'Sm12 Co12 O36'
_cell_volume 211.9451
_cell_formula_units_Z 12
loop_
 _symmetry_equiv_pos_site_id
 _symmetry_equiv_pos_as_xyz
  1  '-x, y+1/2, -z'
  2  '-x, -y, -z'
  3  '-x+1/2, -y, z+1/2'
  4  'x+1/2, -y+1/2, -z+1/2'
  5  'x, y, z'
  6  'x-1/2, y, -z-1/2'
  7  '-x-1/2, y-1/2, z-1/2'
  8  'x, -y-1/2, z'
loop_
_atom_site_type_symbol
_atom_site_label
_atom_site_symmetry_multiplicity
_atom_site_fract_x
_atom_site_fract_y
_atom_site_fract_z
_atom_site_occupancy
Sm Sm0 8 0.2082 0.0638 0.4673 1
Sm Sm1 4 0.0237 0.2500 0.9139 1
Co Co2 8 0.1804 0.6063 0.5142 1
Co Co3 4 0.0346 0.7500 0.5837 1
O O4 8 0.0723 0.5908 0.8228 1
O O5 8 0.1131 0.0702 0.8897 1
O O6 8 0.1592 0.6154 0.2738 1
O O7 4 0.0939 0.7500 0.3659 1
O O8 4 0.1545 0.2500 0.2736 1
O O9 4 0.2187 0.2500 0.7308 1

