data_Nd1Cr1O3
_symmetry_space_group_name_H-M Pnma
_cell_length_a 5.5874
_cell_length_b 7.6035
_cell_length_c 5.3440
_cell_angle_alpha 90.0000
_cell_angle_beta 90.0000
_cell_angle_gamma 90.0000
_symmetry_Int_Tables_number 62
_chemical_formula_structural NdCrO3
_chemical_formula_sum 'Nd12 Cr12 O36'
_cell_volume 227.6644
_cell_formula_units_Z 12
loop_
 _symmetry_equiv_pos_site_id
 _symmetry_equiv_pos_as_xyz
  1  '-x, y+1/2, -z'
  2  '-x, -y, -z'
  3  '-x+1/2, -y, z+1/2'
  4  'x+1/2, -y+1/2, -z+1/2'
  5  'x, y, z'
  6  'x-1/2, y, -z-1/2'
  7  '-x-1/2, y-1/2, z-1/2'
  8  'x, -y-1/2, z'
loop_
_atom_site_type_symbol
_atom_site_label
_atom_site_symmetry_multiplicity
_atom_site_fract_x
_atom_site_fract_y
_atom_site_fract_z
_atom_site_occupancy
Nd Nd0 8 0.2301 0.0731 0.5595 1
Nd Nd1 4 0.0207 0.7500 0.9179 1
Cr Cr2 8 0.0048 0.0760 0.0066 1
Cr Cr3 4 0.0102 0.7500 0.4644 1
O O4 8 0.0015 0.1673 0.7080 1
O O5 8 0.0506 0.6129 0.6304 1
O O6 8 0.1796 0.0086 0.9220 1
O O7 8 0.2157 0.6668 0.0608 1
O O8 4 0.0948 0.2500 0.1571 1

