data_Pr1Fe1O3
_symmetry_space_group_name_H-M Pnma
_cell_length_a 5.6934
_cell_length_b 3.6791
_cell_length_c 5.7159
_cell_angle_alpha 90.0000
_cell_angle_beta 90.0000
_cell_angle_gamma 90.0000
_symmetry_Int_Tables_number 62
_chemical_formula_structural PrFeO3
_chemical_formula_sum 'Pr12 Fe12 O36'
_cell_volume 119.7726
_cell_formula_units_Z 12
loop_
 _symmetry_equiv_pos_site_id
 _symmetry_equiv_pos_as_xyz
  1  '-x, y+1/2, -z'
  2  '-x, -y, -z'
  3  '-x+1/2, -y, z+1/2'
  4  'x+1/2, -y+1/2, -z+1/2'
  5  'x, y, z'
  6  'x-1/2, y, -z-1/2'
  7  '-x-1/2, y-1/2, z-1/2'
  8  'x, -y-1/2, z'
loop_
_atom_site_type_symbol
_atom_site_label
_atom_site_symmetry_multiplicity
_atom_site_fract_x
_atom_site_fract_y
_atom_site_fract_z
_atom_site_occupancy
Pr Pr0 4 0.0826 0.7500 0.9690 1
Pr Pr1 4 0.2020 0.2500 0.3146 1
Pr Pr2 4 0.2298 0.2500 0.8015 1
Fe Fe3 4 0.0073 0.7500 0.4458 1
Fe Fe4 4 0.0785 0.7500 0.6623 1
Fe Fe5 4 0.0990 0.2500 0.0451 1
O O6 4 0.0025 0.7500 0.1752 1
O O7 4 0.0302 0.2500 0.4421 1
O O8 4 0.0611 0.7500 0.8948 1
O O9 4 0.1342 0.2500 0.6811 1
O O10 4 0.1468 0.2500 0.9911 1
O O11 4 0.1655 0.7500 0.4808 1
O O12 4 0.1784 0.2500 0.1401 1
O O13 4 0.1802 0.7500 0.1967 1
O O14 4 0.2345 0.7500 0.8891 1

