data_La1Co1O3
_symmetry_space_group_name_H-M Pnma
_cell_length_a 9.8264
_cell_length_b 3.7024
_cell_length_c 3.6133
_cell_angle_alpha 90.0000
_cell_angle_beta 90.0000
_cell_angle_gamma 90.0000
_symmetry_Int_Tables_number 62
_chemical_formula_structural LaCoO3
_chemical_formula_sum 'La12 Co12 O36'
_cell_volume 130.7157
_cell_formula_units_Z 12
loop_
 _symmetry_equiv_pos_site_id
 _symmetry_equiv_pos_as_xyz
  1  '-x, y+1/2, -z'
  2  '-x, -y, -z'
  3  '-x+1/2, -y, z+1/2'
  4  'x+1/2, -y+1/2, -z+1/2'
  5  'x, y, z'
  6  'x-1/2, y, -z-1/2'
  7  '-x-1/2, y-1/2, z-1/2'
  8  'x, -y-1/2, z'
loop_
_atom_site_type_symbol
_atom_site_label
_atom_site_symmetry_multiplicity
_atom_site_fract_x
_atom_site_fract_y
_atom_site_fract_z
_atom_site_occupancy
La La0 4 0.0875 0.2500 0.9630 1
La La1 4 0.0890 0.7500 0.4369 1
La La2 4 0.2494 0.7500 0.1823 1
Co Co3 4 0.1327 0.2500 0.6416 1
Co Co4 4 0.1791 0.7500 0.7762 1
Co Co5 4 0.2144 0.2500 0.1891 1
O O6 4 0.0070 0.2500 0.7250 1
O O7 4 0.0772 0.2500 0.4604 1
O O8 4 0.0869 0.7500 0.9356 1
O O9 4 0.1120 0.2500 0.1674 1
O O10 4 0.1417 0.7500 0.6354 1
O O11 4 0.1525 0.7500 0.2229 1
O O12 4 0.2313 0.2500 0.4004 1
O O13 4 0.2342 0.2500 0.6051 1
O O14 4 0.2384 0.2500 0.9212 1

