data_Sm1Ni1O3
_symmetry_space_group_name_H-M Pnma
_cell_length_a 5.3737
_cell_length_b 3.6994
_cell_length_c 4.9941
_cell_angle_alpha 90.0000
_cell_angle_beta 90.0000
_cell_angle_gamma 90.0000
_symmetry_Int_Tables_number 62
_chemical_formula_structural SmNiO3
_chemical_formula_sum 'Sm12 Ni12 O36'
_cell_volume 99.9495
_cell_formula_units_Z 12
loop_
 _symmetry_equiv_pos_site_id
 _symmetry_equiv_pos_as_xyz
  1  '-x, y+1/2, -z'
  2  '-x, -y, -z'
  3  '-x+1/2, -y, z+1/2'
  4  'x+1/2, -y+1/2, -z+1/2'
  5  'x, y, z'
  6  'x-1/2, y, -z-1/2'
  7  '-x-1/2, y-1/2, z-1/2'
  8  'x, -y-1/2, z'
loop_
_atom_site_type_symbol
_atom_site_label
_atom_site_symmetry_multiplicity
_atom_site_fract_x
_atom_site_fract_y
_atom_site_fract_z
_atom_site_occupancy
Sm Sm0 4 0.0080 0.7500 0.5094 1
Sm Sm1 4 0.1884 0.2500 0.9758 1
Sm Sm2 4 0.1896 0.7500 0.9827 1
Ni Ni3 4 0.0000 0.0000 0.0000 1
Ni Ni4 4 0.0799 0.7500 0.0110 1
Ni Ni5 4 0.0902 0.2500 0.5111 1
O O6 8 0.0240 0.5150 0.2697 1
O O7 8 0.1676 0.0193 0.7177 1
O O8 4 0.0000 0.0000 0.0000 1
O O9 4 0.0685 0.2500 0.0804 1
O O10 4 0.1289 0.7500 0.1640 1
O O11 4 0.1840 0.7500 0.4988 1
O O12 4 0.2256 0.2500 0.4839 1

