data_Sm1Ni1O3
_symmetry_space_group_name_H-M Pnma
_cell_length_a 5.4807
_cell_length_b 3.5729
_cell_length_c 5.3288
_cell_angle_alpha 90.0000
_cell_angle_beta 90.0000
_cell_angle_gamma 90.0000
_symmetry_Int_Tables_number 62
_chemical_formula_structural SmNiO3
_chemical_formula_sum 'Sm12 Ni12 O36'
_cell_volume 104.0064
_cell_formula_units_Z 12
loop_
 _symmetry_equiv_pos_site_id
 _symmetry_equiv_pos_as_xyz
  1  '-x, y+1/2, -z'
  2  '-x, -y, -z'
  3  '-x+1/2, -y, z+1/2'
  4  'x+1/2, -y+1/2, -z+1/2'
  5  'x, y, z'
  6  'x-1/2, y, -z-1/2'
  7  '-x-1/2, y-1/2, z-1/2'
  8  'x, -y-1/2, z'
loop_
_atom_site_type_symbol
_atom_site_label
_atom_site_symmetry_multiplicity
_atom_site_fract_x
_atom_site_fract_y
_atom_site_fract_z
_atom_site_occupancy
Sm Sm0 4 0.0027 0.7500 0.6666 1
Sm Sm1 4 0.1539 0.7500 0.1920 1
Sm Sm2 4 0.1703 0.2500 0.5029 1
Ni Ni3 4 0.1553 0.2500 0.9972 1
Ni Ni4 4 0.1768 0.7500 0.8073 1
Ni Ni5 4 0.1933 0.7500 0.4826 1
O O6 4 0.0618 0.2500 0.8843 1
O O7 4 0.0645 0.7500 0.4071 1
O O8 4 0.0795 0.2500 0.0910 1
O O9 4 0.1049 0.7500 0.6924 1
O O10 4 0.1213 0.7500 0.9885 1
O O11 4 0.2121 0.2500 0.3905 1
O O12 4 0.2175 0.2500 0.7029 1
O O13 4 0.2192 0.2500 0.1016 1
O O14 4 0.2242 0.2500 0.8851 1

