data_Pr1Ni1O3
_symmetry_space_group_name_H-M Pnma
_cell_length_a 5.7964
_cell_length_b 3.5522
_cell_length_c 5.4292
_cell_angle_alpha 90.0000
_cell_angle_beta 90.0000
_cell_angle_gamma 90.0000
_symmetry_Int_Tables_number 62
_chemical_formula_structural PrNiO3
_chemical_formula_sum 'Pr12 Ni14 O34'
_cell_volume 111.7604
_cell_formula_units_Z 14
loop_
 _symmetry_equiv_pos_site_id
 _symmetry_equiv_pos_as_xyz
  1  '-x, y+1/2, -z'
  2  '-x, -y, -z'
  3  '-x+1/2, -y, z+1/2'
  4  'x+1/2, -y+1/2, -z+1/2'
  5  'x, y, z'
  6  'x-1/2, y, -z-1/2'
  7  '-x-1/2, y-1/2, z-1/2'
  8  'x, -y-1/2, z'
loop_
_atom_site_type_symbol
_atom_site_label
_atom_site_symmetry_multiplicity
_atom_site_fract_x
_atom_site_fract_y
_atom_site_fract_z
_atom_site_occupancy
Pr Pr0 4 0.0633 0.7500 0.6094 1
Pr Pr1 4 0.1093 0.7500 0.1673 1
Pr Pr2 4 0.2237 0.2500 0.3925 1
Ni Ni3 4 0.0142 0.7500 0.8379 1
Ni Ni4 4 0.1676 0.2500 0.9876 1
Ni Ni5 4 0.2145 0.7500 0.5846 1
Ni Ni6 4 0.2481 0.2500 0.7328 1
O O7 4 0.0694 0.2500 0.0365 1
O O8 4 0.0784 0.2500 0.3841 1
O O9 4 0.0980 0.2500 0.6954 1
O O10 4 0.1231 0.7500 0.7990 1
O O11 4 0.1483 0.7500 0.3807 1
O O12 4 0.1659 0.2500 0.1164 1
O O13 4 0.2438 0.7500 0.9513 1
O O14 4 0.2478 0.2500 0.5636 1
O O15 4 0.2492 0.2500 0.8073 1

