data_Ba1Ni1O3
_symmetry_space_group_name_H-M Pnma
_cell_length_a 5.9652
_cell_length_b 4.0109
_cell_length_c 5.8885
_cell_angle_alpha 90.0000
_cell_angle_beta 90.0000
_cell_angle_gamma 90.0000
_symmetry_Int_Tables_number 62
_chemical_formula_structural BaNiO3
_chemical_formula_sum 'Ba12 Ni12 O36'
_cell_volume 140.5199
_cell_formula_units_Z 12
loop_
 _symmetry_equiv_pos_site_id
 _symmetry_equiv_pos_as_xyz
  1  '-x, y+1/2, -z'
  2  '-x, -y, -z'
  3  '-x+1/2, -y, z+1/2'
  4  'x+1/2, -y+1/2, -z+1/2'
  5  'x, y, z'
  6  'x-1/2, y, -z-1/2'
  7  '-x-1/2, y-1/2, z-1/2'
  8  'x, -y-1/2, z'
loop_
_atom_site_type_symbol
_atom_site_label
_atom_site_symmetry_multiplicity
_atom_site_fract_x
_atom_site_fract_y
_atom_site_fract_z
_atom_site_occupancy
Ba Ba0 4 0.0708 0.7500 0.8912 1
Ba Ba1 4 0.1706 0.7500 0.4999 1
Ba Ba2 4 0.1865 0.7500 0.3033 1
Ni Ni3 4 0.0554 0.2500 0.8043 1
Ni Ni4 4 0.0603 0.2500 0.3036 1
Ni Ni5 4 0.1011 0.2500 0.6012 1
O O6 4 0.0535 0.7500 0.2094 1
O O7 4 0.0640 0.7500 0.6452 1
O O8 4 0.0744 0.2500 0.5335 1
O O9 4 0.0799 0.7500 0.0501 1
O O10 4 0.0995 0.2500 0.9217 1
O O11 4 0.1778 0.2500 0.4008 1
O O12 4 0.1798 0.7500 0.7873 1
O O13 4 0.2069 0.7500 0.0914 1

