data_Sm1Ni1O3
_symmetry_space_group_name_H-M Pnma
_cell_length_a 5.2939
_cell_length_b 3.6035
_cell_length_c 5.2559
_cell_angle_alpha 90.0000
_cell_angle_beta 90.0000
_cell_angle_gamma 90.0000
_symmetry_Int_Tables_number 62
_chemical_formula_structural SmNiO3
_chemical_formula_sum 'Sm4 Ni4 O12'
_cell_volume 100.3915
_cell_formula_units_Z 4
loop_
 _symmetry_equiv_pos_site_id
 _symmetry_equiv_pos_as_xyz
  1  '-x, y+1/2, -z'
  2  '-x, -y, -z'
  3  '-x+1/2, -y, z+1/2'
  4  'x+1/2, -y+1/2, -z+1/2'
  5  'x, y, z'
  6  'x-1/2, y, -z-1/2'
  7  '-x-1/2, y-1/2, z-1/2'
  8  'x, -y-1/2, z'
loop_
_atom_site_type_symbol
_atom_site_label
_atom_site_symmetry_multiplicity
_atom_site_fract_x
_atom_site_fract_y
_atom_site_fract_z
_atom_site_occupancy
Sm Sm0 4 0.2289 0.7500 0.0012 1
Ni Ni1 4 0.0404 0.2500 0.4961 1
O O2 8 0.0202 0.0094 0.7721 1
O O3 4 0.1710 0.2500 0.4767 1

