data_Pr1Co1O3
_symmetry_space_group_name_H-M Pnma
_cell_length_a 5.4809
_cell_length_b 3.6516
_cell_length_c 5.2881
_cell_angle_alpha 90.0000
_cell_angle_beta 90.0000
_cell_angle_gamma 90.0000
_symmetry_Int_Tables_number 62
_chemical_formula_structural PrCoO3
_chemical_formula_sum 'Pr12 Co12 O36'
_cell_volume 105.7823
_cell_formula_units_Z 12
loop_
 _symmetry_equiv_pos_site_id
 _symmetry_equiv_pos_as_xyz
  1  '-x, y+1/2, -z'
  2  '-x, -y, -z'
  3  '-x+1/2, -y, z+1/2'
  4  'x+1/2, -y+1/2, -z+1/2'
  5  'x, y, z'
  6  'x-1/2, y, -z-1/2'
  7  '-x-1/2, y-1/2, z-1/2'
  8  'x, -y-1/2, z'
loop_
_atom_site_type_symbol
_atom_site_label
_atom_site_symmetry_multiplicity
_atom_site_fract_x
_atom_site_fract_y
_atom_site_fract_z
_atom_site_occupancy
Pr Pr0 4 0.0834 0.7500 0.1263 1
Pr Pr1 4 0.0864 0.2500 0.6162 1
Pr Pr2 4 0.2402 0.7500 0.6139 1
Co Co3 4 0.1667 0.7500 0.8794 1
Co Co4 4 0.1676 0.7500 0.3748 1
Co Co5 4 0.2476 0.2500 0.1723 1
O O6 8 0.0185 0.5060 0.3297 1
O O7 8 0.2217 0.5015 0.9917 1
O O8 4 0.0842 0.2500 0.1138 1
O O9 4 0.0961 0.7500 0.5332 1
O O10 4 0.1607 0.2500 0.8011 1
O O11 4 0.1734 0.7500 0.7820 1
O O12 4 0.1762 0.7500 0.2901 1

