data_Ba1Ni1O3
_symmetry_space_group_name_H-M Pnma
_cell_length_a 5.7964
_cell_length_b 4.0188
_cell_length_c 5.7641
_cell_angle_alpha 90.0000
_cell_angle_beta 90.0000
_cell_angle_gamma 90.0000
_symmetry_Int_Tables_number 62
_chemical_formula_structural BaNiO3
_chemical_formula_sum 'Ba12 Ni12 O18'
_cell_volume 134.5204
_cell_formula_units_Z 12
loop_
 _symmetry_equiv_pos_site_id
 _symmetry_equiv_pos_as_xyz
  1  '-x, y+1/2, -z'
  2  '-x, -y, -z'
  3  '-x+1/2, -y, z+1/2'
  4  'x+1/2, -y+1/2, -z+1/2'
  5  'x, y, z'
  6  'x-1/2, y, -z-1/2'
  7  '-x-1/2, y-1/2, z-1/2'
  8  'x, -y-1/2, z'
loop_
_atom_site_type_symbol
_atom_site_label
_atom_site_symmetry_multiplicity
_atom_site_fract_x
_atom_site_fract_y
_atom_site_fract_z
_atom_site_occupancy
Ba Ba0 4 0.0051 0.7500 0.3993 1
Ba Ba1 4 0.1668 0.7500 0.9995 1
Ba Ba2 4 0.1676 0.2500 0.7807 1
Ni Ni3 4 0.0010 0.2500 0.2281 1
Ni Ni4 4 0.1665 0.7500 0.5958 1
Ni Ni5 4 0.1683 0.2500 0.2016 1
O O6 8 0.0677 0.0070 0.1124 1
O O7 8 0.0925 0.5023 0.3657 1
O O8 4 0.2237 0.2500 0.2086 1
O O9 4 0.2288 0.7500 0.5060 1

