data_La1Fe1O3
_symmetry_space_group_name_H-M Pnma
_cell_length_a 5.5515
_cell_length_b 3.7113
_cell_length_c 5.4611
_cell_angle_alpha 90.0000
_cell_angle_beta 90.0000
_cell_angle_gamma 90.0000
_symmetry_Int_Tables_number 62
_chemical_formula_structural LaFeO3
_chemical_formula_sum 'La12 Fe12 O36'
_cell_volume 112.6632
_cell_formula_units_Z 12
loop_
 _symmetry_equiv_pos_site_id
 _symmetry_equiv_pos_as_xyz
  1  '-x, y+1/2, -z'
  2  '-x, -y, -z'
  3  '-x+1/2, -y, z+1/2'
  4  'x+1/2, -y+1/2, -z+1/2'
  5  'x, y, z'
  6  'x-1/2, y, -z-1/2'
  7  '-x-1/2, y-1/2, z-1/2'
  8  'x, -y-1/2, z'
loop_
_atom_site_type_symbol
_atom_site_label
_atom_site_symmetry_multiplicity
_atom_site_fract_x
_atom_site_fract_y
_atom_site_fract_z
_atom_site_occupancy
La La0 4 0.0192 0.7500 0.0024 1
La La1 4 0.0821 0.2500 0.5114 1
La La2 4 0.2409 0.2500 0.0057 1
Fe Fe3 4 0.1596 0.7500 0.5084 1
Fe Fe4 4 0.1698 0.7500 0.0112 1
Fe Fe5 4 0.1737 0.2500 0.0095 1
O O6 8 0.0756 0.0062 0.7915 1
O O7 8 0.0842 0.0104 0.2758 1
O O8 8 0.2431 0.5143 0.7330 1
O O9 4 0.0955 0.7500 0.5904 1
O O10 4 0.0982 0.2500 0.1050 1
O O11 4 0.2461 0.7500 0.0914 1

