data_La1Ni1O3
_symmetry_space_group_name_H-M Pnma
_cell_length_a 5.2750
_cell_length_b 3.6025
_cell_length_c 5.3274
_cell_angle_alpha 90.0000
_cell_angle_beta 90.0000
_cell_angle_gamma 90.0000
_symmetry_Int_Tables_number 62
_chemical_formula_structural LaNiO3
_chemical_formula_sum 'La12 Ni12 O36'
_cell_volume 101.4366
_cell_formula_units_Z 12
loop_
 _symmetry_equiv_pos_site_id
 _symmetry_equiv_pos_as_xyz
  1  '-x, y+1/2, -z'
  2  '-x, -y, -z'
  3  '-x+1/2, -y, z+1/2'
  4  'x+1/2, -y+1/2, -z+1/2'
  5  'x, y, z'
  6  'x-1/2, y, -z-1/2'
  7  '-x-1/2, y-1/2, z-1/2'
  8  'x, -y-1/2, z'
loop_
_atom_site_type_symbol
_atom_site_label
_atom_site_symmetry_multiplicity
_atom_site_fract_x
_atom_site_fract_y
_atom_site_fract_z
_atom_site_occupancy
La La0 4 0.0011 0.7500 0.4965 1
La La1 4 0.1651 0.7500 0.0017 1
La La2 4 0.1677 0.2500 0.0003 1
Ni Ni3 8 0.1666 0.5002 0.5046 1
Ni Ni4 4 0.0000 0.0000 0.0000 1
O O5 8 0.0736 0.0186 0.6897 1
O O6 8 0.0904 0.5178 0.1705 1
O O7 8 0.2480 0.5486 0.7933 1
O O8 4 0.0065 0.7500 0.9169 1
O O9 4 0.1548 0.7500 0.4089 1
O O10 4 0.1733 0.2500 0.4070 1

