data_Nd1Ni1O3
_symmetry_space_group_name_H-M Pnma
_cell_length_a 5.4221
_cell_length_b 3.7118
_cell_length_c 5.3140
_cell_angle_alpha 90.0000
_cell_angle_beta 90.0000
_cell_angle_gamma 90.0000
_symmetry_Int_Tables_number 62
_chemical_formula_structural NdNiO3
_chemical_formula_sum 'Nd12 Ni12 O36'
_cell_volume 106.9817
_cell_formula_units_Z 12
loop_
 _symmetry_equiv_pos_site_id
 _symmetry_equiv_pos_as_xyz
  1  '-x, y+1/2, -z'
  2  '-x, -y, -z'
  3  '-x+1/2, -y, z+1/2'
  4  'x+1/2, -y+1/2, -z+1/2'
  5  'x, y, z'
  6  'x-1/2, y, -z-1/2'
  7  '-x-1/2, y-1/2, z-1/2'
  8  'x, -y-1/2, z'
loop_
_atom_site_type_symbol
_atom_site_label
_atom_site_symmetry_multiplicity
_atom_site_fract_x
_atom_site_fract_y
_atom_site_fract_z
_atom_site_occupancy
Nd Nd0 4 0.0932 0.7500 0.2623 1
Nd Nd1 4 0.1493 0.2500 0.8792 1
Nd Nd2 4 0.1904 0.2500 0.4541 1
Ni Ni3 4 0.0319 0.7500 0.7493 1
Ni Ni4 4 0.0828 0.2500 0.1507 1
Ni Ni5 4 0.2193 0.2500 0.2859 1
O O6 4 0.0064 0.2500 0.4063 1
O O7 4 0.0521 0.7500 0.9170 1
O O8 4 0.1037 0.7500 0.5742 1
O O9 4 0.1291 0.2500 0.7111 1
O O10 4 0.1364 0.2500 0.2750 1
O O11 4 0.1714 0.7500 0.0943 1
O O12 4 0.2140 0.7500 0.8738 1
O O13 4 0.2250 0.7500 0.4522 1
O O14 4 0.2500 0.7500 0.2800 1

