data_Nd1Mn1O3
_symmetry_space_group_name_H-M Pnma
_cell_length_a 5.5741
_cell_length_b 3.8486
_cell_length_c 5.3654
_cell_angle_alpha 90.0000
_cell_angle_beta 90.0000
_cell_angle_gamma 90.0000
_symmetry_Int_Tables_number 62
_chemical_formula_structural NdMnO3
_chemical_formula_sum 'Nd12 Mn12 O36'
_cell_volume 115.1239
_cell_formula_units_Z 12
loop_
 _symmetry_equiv_pos_site_id
 _symmetry_equiv_pos_as_xyz
  1  '-x, y+1/2, -z'
  2  '-x, -y, -z'
  3  '-x+1/2, -y, z+1/2'
  4  'x+1/2, -y+1/2, -z+1/2'
  5  'x, y, z'
  6  'x-1/2, y, -z-1/2'
  7  '-x-1/2, y-1/2, z-1/2'
  8  'x, -y-1/2, z'
loop_
_atom_site_type_symbol
_atom_site_label
_atom_site_symmetry_multiplicity
_atom_site_fract_x
_atom_site_fract_y
_atom_site_fract_z
_atom_site_occupancy
Nd Nd0 4 0.0449 0.7500 0.9922 1
Nd Nd1 4 0.1823 0.2500 0.5116 1
Nd Nd2 4 0.1855 0.7500 0.4867 1
Mn Mn3 4 0.0000 0.0000 0.5000 1
Mn Mn4 4 0.0954 0.7500 0.9917 1
Mn Mn5 4 0.1664 0.2500 0.0034 1
O O6 4 0.0264 0.2500 0.8987 1
O O7 4 0.0447 0.7500 0.5684 1
O O8 4 0.0502 0.2500 0.6072 1
O O9 4 0.1054 0.7500 0.2840 1
O O10 4 0.1162 0.2500 0.1855 1
O O11 4 0.1892 0.7500 0.8117 1
O O12 4 0.2218 0.2500 0.7336 1
O O13 4 0.2445 0.2500 0.2435 1
O O14 4 0.2491 0.7500 0.1149 1

