data_Pr1Co1O3
_symmetry_space_group_name_H-M Pnma
_cell_length_a 5.1898
_cell_length_b 3.6078
_cell_length_c 5.4612
_cell_angle_alpha 90.0000
_cell_angle_beta 90.0000
_cell_angle_gamma 90.0000
_symmetry_Int_Tables_number 62
_chemical_formula_structural PrCoO3
_chemical_formula_sum 'Pr12 Co14 O36'
_cell_volume 102.0159
_cell_formula_units_Z 12
loop_
 _symmetry_equiv_pos_site_id
 _symmetry_equiv_pos_as_xyz
  1  '-x, y+1/2, -z'
  2  '-x, -y, -z'
  3  '-x+1/2, -y, z+1/2'
  4  'x+1/2, -y+1/2, -z+1/2'
  5  'x, y, z'
  6  'x-1/2, y, -z-1/2'
  7  '-x-1/2, y-1/2, z-1/2'
  8  'x, -y-1/2, z'
loop_
_atom_site_type_symbol
_atom_site_label
_atom_site_symmetry_multiplicity
_atom_site_fract_x
_atom_site_fract_y
_atom_site_fract_z
_atom_site_occupancy
Pr Pr0 4 0.0589 0.2500 0.5167 1
Pr Pr1 4 0.0911 0.7500 0.0221 1
Pr Pr2 4 0.2254 0.2500 0.8775 1
Co Co3 4 0.1350 0.7500 0.5075 1
Co Co4 4 0.1793 0.7500 0.3062 1
Co Co5 4 0.2005 0.2500 0.2158 1
Co Co6 4 0.2500 0.2500 0.5007 1
O O7 8 0.0881 0.5228 0.7130 1
O O8 8 0.0929 0.0277 0.2294 1
O O9 8 0.2415 0.5249 0.3935 1
O O10 4 0.0635 0.2500 0.9966 1
O O11 4 0.0767 0.7500 0.4716 1
O O12 4 0.2168 0.7500 0.1387 1

