data_Pr1Ni1O3
_symmetry_space_group_name_H-M Pnma
_cell_length_a 5.3071
_cell_length_b 3.6972
_cell_length_c 5.2599
_cell_angle_alpha 90.0000
_cell_angle_beta 90.0000
_cell_angle_gamma 90.0000
_symmetry_Int_Tables_number 62
_chemical_formula_structural PrNiO3
_chemical_formula_sum 'Pr12 Ni12 O36'
_cell_volume 103.3503
_cell_formula_units_Z 12
loop_
 _symmetry_equiv_pos_site_id
 _symmetry_equiv_pos_as_xyz
  1  '-x, y+1/2, -z'
  2  '-x, -y, -z'
  3  '-x+1/2, -y, z+1/2'
  4  'x+1/2, -y+1/2, -z+1/2'
  5  'x, y, z'
  6  'x-1/2, y, -z-1/2'
  7  '-x-1/2, y-1/2, z-1/2'
  8  'x, -y-1/2, z'
loop_
_atom_site_type_symbol
_atom_site_label
_atom_site_symmetry_multiplicity
_atom_site_fract_x
_atom_site_fract_y
_atom_site_fract_z
_atom_site_occupancy
Pr Pr0 4 0.0464 0.2500 0.4891 1
Pr Pr1 4 0.1834 0.7500 0.9993 1
Pr Pr2 4 0.1942 0.7500 0.5051 1
Ni Ni3 4 0.0000 0.0000 0.0000 1
Ni Ni4 4 0.1170 0.2500 0.9214 1
Ni Ni5 4 0.1784 0.7500 0.5077 1
O O6 8 0.0624 0.0108 0.7273 1
O O7 8 0.2153 0.0412 0.2764 1
O O8 4 0.0209 0.7500 0.2588 1
O O9 4 0.0704 0.2500 0.1052 1
O O10 4 0.1017 0.2500 0.9429 1
O O11 4 0.1622 0.7500 0.0412 1
O O12 4 0.1962 0.2500 0.6412 1

