data_Ba1Ni1O3
_symmetry_space_group_name_H-M Pnma
_cell_length_a 5.3621
_cell_length_b 4.0351
_cell_length_c 5.9980
_cell_angle_alpha 90.0000
_cell_angle_beta 90.0000
_cell_angle_gamma 90.0000
_symmetry_Int_Tables_number 62
_chemical_formula_structural BaNiO3
_chemical_formula_sum 'Ba1 Ni1 O3'
_cell_volume 129.8984
_cell_formula_units_Z 1
loop_
 _symmetry_equiv_pos_site_id
 _symmetry_equiv_pos_as_xyz
  1  '-x, y+1/2, -z'
  2  '-x, -y, -z'
  3  '-x+1/2, -y, z+1/2'
  4  'x+1/2, -y+1/2, -z+1/2'
  5  'x, y, z'
  6  'x-1/2, y, -z-1/2'
  7  '-x-1/2, y-1/2, z-1/2'
  8  'x, -y-1/2, z'
loop_
_atom_site_type_symbol
_atom_site_label
_atom_site_symmetry_multiplicity
_atom_site_fract_x
_atom_site_fract_y
_atom_site_fract_z
_atom_site_occupancy
Ba Ba0 4 0.0304 0.2500 0.2948 1
Ni Ni1 4 0.0145 0.2500 0.9013 1
O O2 8 0.2058 0.5136 0.9668 1
O O3 4 0.0032 0.7500 0.4169 1

