data_La1Co1O3
_symmetry_space_group_name_H-M Pnma
_cell_length_a 5.5024
_cell_length_b 3.6872
_cell_length_c 5.3849
_cell_angle_alpha 90.0000
_cell_angle_beta 90.0000
_cell_angle_gamma 90.0000
_symmetry_Int_Tables_number 62
_chemical_formula_structural LaCoO3
_chemical_formula_sum 'La12 Co14 O36'
_cell_volume 109.1992
_cell_formula_units_Z 12
loop_
 _symmetry_equiv_pos_site_id
 _symmetry_equiv_pos_as_xyz
  1  '-x, y+1/2, -z'
  2  '-x, -y, -z'
  3  '-x+1/2, -y, z+1/2'
  4  'x+1/2, -y+1/2, -z+1/2'
  5  'x, y, z'
  6  'x-1/2, y, -z-1/2'
  7  '-x-1/2, y-1/2, z-1/2'
  8  'x, -y-1/2, z'
loop_
_atom_site_type_symbol
_atom_site_label
_atom_site_symmetry_multiplicity
_atom_site_fract_x
_atom_site_fract_y
_atom_site_fract_z
_atom_site_occupancy
La La0 4 0.0197 0.7500 0.9962 1
La La1 4 0.1871 0.7500 0.5038 1
La La2 4 0.1887 0.7500 0.4999 1
Co Co3 4 0.0000 0.0000 0.5000 1
Co Co4 4 0.0914 0.2500 0.9724 1
Co Co5 4 0.0930 0.2500 0.4035 1
Co Co6 4 0.0943 0.2500 0.7188 1
O O7 8 0.0662 0.0222 0.7867 1
O O8 8 0.1608 0.5280 0.2420 1
O O9 8 0.1671 0.0321 0.7390 1
O O10 4 0.0012 0.2500 0.4821 1
O O11 4 0.0015 0.2500 0.0307 1
O O12 4 0.1520 0.2500 0.4989 1

