data_Nd1Cr1O3
_symmetry_space_group_name_H-M Pnma
_cell_length_a 5.5773
_cell_length_b 7.6492
_cell_length_c 5.3182
_cell_angle_alpha 90.0000
_cell_angle_beta 90.0000
_cell_angle_gamma 90.0000
_symmetry_Int_Tables_number 62
_chemical_formula_structural NdCrO3
_chemical_formula_sum 'Nd12 Cr12 O36'
_cell_volume 227.8102
_cell_formula_units_Z 12
loop_
 _symmetry_equiv_pos_site_id
 _symmetry_equiv_pos_as_xyz
  1  '-x, y+1/2, -z'
  2  '-x, -y, -z'
  3  '-x+1/2, -y, z+1/2'
  4  'x+1/2, -y+1/2, -z+1/2'
  5  'x, y, z'
  6  'x-1/2, y, -z-1/2'
  7  '-x-1/2, y-1/2, z-1/2'
  8  'x, -y-1/2, z'
loop_
_atom_site_type_symbol
_atom_site_label
_atom_site_symmetry_multiplicity
_atom_site_fract_x
_atom_site_fract_y
_atom_site_fract_z
_atom_site_occupancy
Nd Nd0 8 0.1702 0.0080 0.9305 1
Nd Nd1 4 0.0420 0.2500 0.5127 1
Cr Cr2 8 0.1274 0.5910 0.4725 1
Cr Cr3 4 0.0000 0.0000 0.0000 1
O O4 8 0.0610 0.5279 0.2160 1
O O5 8 0.0718 0.0740 0.3664 1
O O6 8 0.1041 0.6145 0.8446 1
O O7 8 0.2022 0.1075 0.6520 1
O O8 4 0.0777 0.7500 0.2999 1

