data_Sm1Co1O3
_symmetry_space_group_name_H-M Pnma
_cell_length_a 5.4016
_cell_length_b 7.3490
_cell_length_c 5.2423
_cell_angle_alpha 90.0000
_cell_angle_beta 90.0000
_cell_angle_gamma 90.0000
_symmetry_Int_Tables_number 62
_chemical_formula_structural SmCoO3
_chemical_formula_sum 'Sm12 Co12 O36'
_cell_volume 207.9945
_cell_formula_units_Z 12
loop_
 _symmetry_equiv_pos_site_id
 _symmetry_equiv_pos_as_xyz
  1  '-x, y+1/2, -z'
  2  '-x, -y, -z'
  3  '-x+1/2, -y, z+1/2'
  4  'x+1/2, -y+1/2, -z+1/2'
  5  'x, y, z'
  6  'x-1/2, y, -z-1/2'
  7  '-x-1/2, y-1/2, z-1/2'
  8  'x, -y-1/2, z'
loop_
_atom_site_type_symbol
_atom_site_label
_atom_site_symmetry_multiplicity
_atom_site_fract_x
_atom_site_fract_y
_atom_site_fract_z
_atom_site_occupancy
Sm Sm0 8 0.1724 0.5026 0.4245 1
Sm Sm1 4 0.0200 0.7500 0.9917 1
Co Co2 8 0.1487 0.0005 0.9919 1
Co Co3 4 0.0000 0.0000 0.5000 1
O O4 8 0.0125 0.0396 0.7810 1
O O5 8 0.0762 0.1016 0.3123 1
O O6 8 0.2104 0.6008 0.0870 1
O O7 8 0.2134 0.6217 0.6253 1
O O8 4 0.0242 0.2500 0.5801 1

