data_Sr1Fe1O3
_symmetry_space_group_name_H-M Pnma
_cell_length_a 5.8289
_cell_length_b 3.2611
_cell_length_c 5.8186
_cell_angle_alpha 90.0000
_cell_angle_beta 90.0000
_cell_angle_gamma 90.0000
_symmetry_Int_Tables_number 62
_chemical_formula_structural SrFeO3
_chemical_formula_sum 'Sr12 Fe12 O36'
_cell_volume 110.6248
_cell_formula_units_Z 12
loop_
 _symmetry_equiv_pos_site_id
 _symmetry_equiv_pos_as_xyz
  1  '-x, y+1/2, -z'
  2  '-x, -y, -z'
  3  '-x+1/2, -y, z+1/2'
  4  'x+1/2, -y+1/2, -z+1/2'
  5  'x, y, z'
  6  'x-1/2, y, -z-1/2'
  7  '-x-1/2, y-1/2, z-1/2'
  8  'x, -y-1/2, z'
loop_
_atom_site_type_symbol
_atom_site_label
_atom_site_symmetry_multiplicity
_atom_site_fract_x
_atom_site_fract_y
_atom_site_fract_z
_atom_site_occupancy
Sr Sr0 4 0.0687 0.2500 0.8898 1
Sr Sr1 4 0.0877 0.7500 0.3991 1
Sr Sr2 4 0.2474 0.2500 0.2262 1
Fe Fe3 4 0.0014 0.7500 0.7414 1
Fe Fe4 4 0.1677 0.2500 0.5832 1
Fe Fe5 4 0.1687 0.7500 0.0811 1
O O6 4 0.0063 0.2500 0.5994 1
O O7 4 0.0665 0.7500 0.8889 1
O O8 4 0.0733 0.2500 0.2843 1
O O9 4 0.1094 0.7500 0.7180 1
O O10 4 0.1644 0.2500 0.0069 1
O O11 4 0.1690 0.2500 0.6087 1
O O12 4 0.2391 0.7500 0.3818 1
O O13 4 0.2396 0.7500 0.0925 1
O O14 4 0.2480 0.7500 0.7520 1

