data_La1Fe1O3
_symmetry_space_group_name_H-M Pnma
_cell_length_a 5.6314
_cell_length_b 7.8308
_cell_length_c 5.5435
_cell_angle_alpha 90.0000
_cell_angle_beta 90.0000
_cell_angle_gamma 90.0000
_symmetry_Int_Tables_number 62
_chemical_formula_structural LaFeO3
_chemical_formula_sum 'La12 Fe12 O36'
_cell_volume 245.0109
_cell_formula_units_Z 12
loop_
 _symmetry_equiv_pos_site_id
 _symmetry_equiv_pos_as_xyz
  1  '-x, y+1/2, -z'
  2  '-x, -y, -z'
  3  '-x+1/2, -y, z+1/2'
  4  'x+1/2, -y+1/2, -z+1/2'
  5  'x, y, z'
  6  'x-1/2, y, -z-1/2'
  7  '-x-1/2, y-1/2, z-1/2'
  8  'x, -y-1/2, z'
loop_
_atom_site_type_symbol
_atom_site_label
_atom_site_symmetry_multiplicity
_atom_site_fract_x
_atom_site_fract_y
_atom_site_fract_z
_atom_site_occupancy
La La0 8 0.2326 0.0006 0.3948 1
La La1 4 0.0184 0.7500 0.0140 1
Fe Fe2 8 0.0347 0.6018 0.5035 1
Fe Fe3 4 0.0000 0.0000 0.0000 1
O O4 16 0.1048 0.0713 0.7463 1
O O5 8 0.0358 0.6212 0.8451 1
O O6 8 0.1374 0.5143 0.2293 1
O O7 4 0.1528 0.7500 0.4253 1

