data_Ba1Cr1O3
_symmetry_space_group_name_H-M Pnma
_cell_length_a 6.8341
_cell_length_b 7.0451
_cell_length_c 3.7852
_cell_angle_alpha 90.0000
_cell_angle_beta 90.0000
_cell_angle_gamma 90.0000
_symmetry_Int_Tables_number 62
_chemical_formula_structural BaCrO3
_chemical_formula_sum 'Ba12 Cr12 O36'
_cell_volume 182.1672
_cell_formula_units_Z 12
loop_
 _symmetry_equiv_pos_site_id
 _symmetry_equiv_pos_as_xyz
  1  '-x, y+1/2, -z'
  2  '-x, -y, -z'
  3  '-x+1/2, -y, z+1/2'
  4  'x+1/2, -y+1/2, -z+1/2'
  5  'x, y, z'
  6  'x-1/2, y, -z-1/2'
  7  '-x-1/2, y-1/2, z-1/2'
  8  'x, -y-1/2, z'
loop_
_atom_site_type_symbol
_atom_site_label
_atom_site_symmetry_multiplicity
_atom_site_fract_x
_atom_site_fract_y
_atom_site_fract_z
_atom_site_occupancy
Ba Ba0 8 0.2325 0.5696 0.5158 1
Ba Ba1 4 0.0221 0.2500 0.9924 1
Cr Cr2 8 0.0233 0.1425 0.5033 1
Cr Cr3 4 0.1998 0.7500 0.4518 1
O O4 8 0.0010 0.1572 0.2536 1
O O5 8 0.1100 0.0587 0.0060 1
O O6 8 0.1314 0.6410 0.0201 1
O O7 8 0.1657 0.5323 0.0081 1
O O8 4 0.1154 0.2500 0.5556 1

