data_Sr1Co1O3
_symmetry_space_group_name_H-M Pnma
_cell_length_a 5.9969
_cell_length_b 11.8872
_cell_length_c 4.2157
_cell_angle_alpha 90.0000
_cell_angle_beta 90.0000
_cell_angle_gamma 90.0000
_symmetry_Int_Tables_number 62
_chemical_formula_structural SrCoO3
_chemical_formula_sum 'Sr12 Co12 O36'
_cell_volume 301.9191
_cell_formula_units_Z 12
loop_
 _symmetry_equiv_pos_site_id
 _symmetry_equiv_pos_as_xyz
  1  '-x, y+1/2, -z'
  2  '-x, -y, -z'
  3  '-x+1/2, -y, z+1/2'
  4  'x+1/2, -y+1/2, -z+1/2'
  5  'x, y, z'
  6  'x-1/2, y, -z-1/2'
  7  '-x-1/2, y-1/2, z-1/2'
  8  'x, -y-1/2, z'
loop_
_atom_site_type_symbol
_atom_site_label
_atom_site_symmetry_multiplicity
_atom_site_fract_x
_atom_site_fract_y
_atom_site_fract_z
_atom_site_occupancy
Sr Sr0 8 0.0691 0.1440 0.0060 1
Sr Sr1 4 0.1014 0.7500 0.0490 1
Co Co2 8 0.1765 0.0009 0.4148 1
Co Co3 4 0.1517 0.2500 0.5716 1
O O4 8 0.0001 0.0090 0.2709 1
O O5 8 0.1738 0.6257 0.4377 1
O O6 8 0.1937 0.1244 0.4513 1
O O7 8 0.2263 0.5730 0.9516 1
O O8 4 0.0086 0.2500 0.5414 1

