data_Ba1Ni1O3
_symmetry_space_group_name_H-M Pnma
_cell_length_a 6.0772
_cell_length_b 3.7622
_cell_length_c 5.5600
_cell_angle_alpha 90.0000
_cell_angle_beta 90.0000
_cell_angle_gamma 90.0000
_symmetry_Int_Tables_number 62
_chemical_formula_structural BaNiO3
_chemical_formula_sum 'Ba12 Ni12 O18'
_cell_volume 127.5600
_cell_formula_units_Z 12
loop_
 _symmetry_equiv_pos_site_id
 _symmetry_equiv_pos_as_xyz
  1  '-x, y+1/2, -z'
  2  '-x, -y, -z'
  3  '-x+1/2, -y, z+1/2'
  4  'x+1/2, -y+1/2, -z+1/2'
  5  'x, y, z'
  6  'x-1/2, y, -z-1/2'
  7  '-x-1/2, y-1/2, z-1/2'
  8  'x, -y-1/2, z'
loop_
_atom_site_type_symbol
_atom_site_label
_atom_site_symmetry_multiplicity
_atom_site_fract_x
_atom_site_fract_y
_atom_site_fract_z
_atom_site_occupancy
Ba Ba0 4 0.0027 0.2500 0.0000 1
Ba Ba1 4 0.1665 0.5000 0.6701 1
Ba Ba2 4 0.1679 0.0000 0.6690 1
Ni Ni3 4 0.1679 0.0000 0.1667 1
Ni Ni4 4 0.1681 0.5000 0.1669 1
Ni Ni5 2 0.0000 0.0000 0.5000 1
Ni Ni6 2 0.0000 0.5000 0.5000 1
O O7 4 0.0699 0.5000 0.2909 1
O O8 4 0.0719 0.0000 0.3030 1
O O9 4 0.0989 0.0000 0.9836 1
O O10 4 0.2408 0.5000 0.0055 1
O O11 4 0.2497 0.0000 0.4359 1

