data_La1Co1O3
_symmetry_space_group_name_H-M Pnma
_cell_length_a 5.1002
_cell_length_b 3.5810
_cell_length_c 7.1414
_cell_angle_alpha 90.0000
_cell_angle_beta 90.0000
_cell_angle_gamma 90.0000
_symmetry_Int_Tables_number 62
_chemical_formula_structural LaCoO3
_chemical_formula_sum 'La4 Co4 O12'
_cell_volume 130.6117
_cell_formula_units_Z 4
loop_
 _symmetry_equiv_pos_site_id
 _symmetry_equiv_pos_as_xyz
  1  '-x, y+1/2, -z'
  2  '-x, -y, -z'
  3  '-x+1/2, -y, z+1/2'
  4  'x+1/2, -y+1/2, -z+1/2'
  5  'x, y, z'
  6  'x-1/2, y, -z-1/2'
  7  '-x-1/2, y-1/2, z-1/2'
  8  'x, -y-1/2, z'
loop_
_atom_site_type_symbol
_atom_site_label
_atom_site_symmetry_multiplicity
_atom_site_fract_x
_atom_site_fract_y
_atom_site_fract_z
_atom_site_occupancy
La La0 4 0.0193 0.7500 0.7927 1
Co Co1 4 0.0000 0.0000 0.5000 1
O O2 4 0.0257 0.2500 0.6937 1
O O3 4 0.1723 0.7500 0.0656 1
O O4 4 0.2291 0.2500 0.0108 1

