data_Pr1Ni1O3
_symmetry_space_group_name_H-M Pnma
_cell_length_a 5.4221
_cell_length_b 3.6549
_cell_length_c 5.3234
_cell_angle_alpha 90.0000
_cell_angle_beta 90.0000
_cell_angle_gamma 90.0000
_symmetry_Int_Tables_number 62
_chemical_formula_structural PrNiO3
_chemical_formula_sum 'Pr12 Ni12 O36'
_cell_volume 105.5658
_cell_formula_units_Z 12
loop_
 _symmetry_equiv_pos_site_id
 _symmetry_equiv_pos_as_xyz
  1  '-x, y+1/2, -z'
  2  '-x, -y, -z'
  3  '-x+1/2, -y, z+1/2'
  4  'x+1/2, -y+1/2, -z+1/2'
  5  'x, y, z'
  6  'x-1/2, y, -z-1/2'
  7  '-x-1/2, y-1/2, z-1/2'
  8  'x, -y-1/2, z'
loop_
_atom_site_type_symbol
_atom_site_label
_atom_site_symmetry_multiplicity
_atom_site_fract_x
_atom_site_fract_y
_atom_site_fract_z
_atom_site_occupancy
Pr Pr0 4 0.0073 0.7500 0.0100 1
Pr Pr1 4 0.1643 0.7500 0.5420 1
Pr Pr2 4 0.1658 0.2500 0.4897 1
Ni Ni3 4 0.0000 0.0000 0.0000 1
Ni Ni4 4 0.3358 0.7500 0.0024 1
Ni Ni5 4 0.3436 0.2500 0.0055 1
O O6 8 0.0682 0.5206 0.2501 1
O O7 8 0.4210 0.0187 0.2445 1
O O8 4 0.0017 0.7500 0.4858 1
O O9 4 0.2173 0.7500 0.9697 1
O O10 4 0.2311 0.2500 0.9953 1
O O11 4 0.2700 0.7500 0.5340 1

