data_Pr1Mn1O3
_symmetry_space_group_name_H-M Pnma
_cell_length_a 5.6011
_cell_length_b 3.7935
_cell_length_c 5.3165
_cell_angle_alpha 90.0000
_cell_angle_beta 90.0000
_cell_angle_gamma 90.0000
_symmetry_Int_Tables_number 62
_chemical_formula_structural PrMnO3
_chemical_formula_sum 'Pr4 Mn4 O12'
_cell_volume 113.3722
_cell_formula_units_Z 4
loop_
 _symmetry_equiv_pos_site_id
 _symmetry_equiv_pos_as_xyz
  1  '-x, y+1/2, -z'
  2  '-x, -y, -z'
  3  '-x+1/2, -y, z+1/2'
  4  'x+1/2, -y+1/2, -z+1/2'
  5  'x, y, z'
  6  'x-1/2, y, -z-1/2'
  7  '-x-1/2, y-1/2, z-1/2'
  8  'x, -y-1/2, z'
loop_
_atom_site_type_symbol
_atom_site_label
_atom_site_symmetry_multiplicity
_atom_site_fract_x
_atom_site_fract_y
_atom_site_fract_z
_atom_site_occupancy
Pr Pr0 4 0.0584 0.2500 0.5111 1
Mn Mn1 4 0.0000 0.0000 0.0000 1
O O2 8 0.2029 0.5434 0.2890 1
O O3 4 0.0128 0.7500 0.9164 1

