data_Pr1Co1O3
_symmetry_space_group_name_H-M Pnma
_cell_length_a 5.1972
_cell_length_b 3.5706
_cell_length_c 5.4210
_cell_angle_alpha 90.0000
_cell_angle_beta 90.0000
_cell_angle_gamma 90.0000
_symmetry_Int_Tables_number 62
_chemical_formula_structural PrCoO3
_chemical_formula_sum 'Pr12 Co14 O36'
_cell_volume 100.4344
_cell_formula_units_Z 14
loop_
 _symmetry_equiv_pos_site_id
 _symmetry_equiv_pos_as_xyz
  1  '-x, y+1/2, -z'
  2  '-x, -y, -z'
  3  '-x+1/2, -y, z+1/2'
  4  'x+1/2, -y+1/2, -z+1/2'
  5  'x, y, z'
  6  'x-1/2, y, -z-1/2'
  7  '-x-1/2, y-1/2, z-1/2'
  8  'x, -y-1/2, z'
loop_
_atom_site_type_symbol
_atom_site_label
_atom_site_symmetry_multiplicity
_atom_site_fract_x
_atom_site_fract_y
_atom_site_fract_z
_atom_site_occupancy
Pr Pr0 4 0.0523 0.2500 0.9885 1
Pr Pr1 4 0.1940 0.7500 0.4671 1
Pr Pr2 4 0.2133 0.2500 0.5128 1
Co Co3 8 0.1184 0.5018 0.5050 1
Co Co4 4 0.0786 0.7500 0.9979 1
Co Co5 4 0.0874 0.2500 0.5038 1
O O6 8 0.0364 0.5058 0.7245 1
O O7 8 0.1681 0.5163 0.1876 1
O O8 8 0.2004 0.5156 0.7830 1
O O9 4 0.0632 0.2500 0.2661 1
O O10 4 0.0634 0.7500 0.2479 1
O O11 4 0.1001 0.7500 0.7080 1

