data_Nd1Fe1O3
_symmetry_space_group_name_H-M Pnma
_cell_length_a 5.6574
_cell_length_b 7.6536
_cell_length_c 5.3492
_cell_angle_alpha 90.0000
_cell_angle_beta 90.0000
_cell_angle_gamma 90.0000
_symmetry_Int_Tables_number 62
_chemical_formula_structural NdFeO3
_chemical_formula_sum 'Nd12 Fe12 O36'
_cell_volume 231.9560
_cell_formula_units_Z 12
loop_
 _symmetry_equiv_pos_site_id
 _symmetry_equiv_pos_as_xyz
  1  '-x, y+1/2, -z'
  2  '-x, -y, -z'
  3  '-x+1/2, -y, z+1/2'
  4  'x+1/2, -y+1/2, -z+1/2'
  5  'x, y, z'
  6  'x-1/2, y, -z-1/2'
  7  '-x-1/2, y-1/2, z-1/2'
  8  'x, -y-1/2, z'
loop_
_atom_site_type_symbol
_atom_site_label
_atom_site_symmetry_multiplicity
_atom_site_fract_x
_atom_site_fract_y
_atom_site_fract_z
_atom_site_occupancy
Nd Nd0 8 0.2359 0.0011 0.4601 1
Nd Nd1 4 0.0142 0.2500 0.9951 1
Fe Fe2 8 0.0086 0.6735 0.5003 1
Fe Fe3 4 0.0000 0.0000 0.0000 1
O O4 8 0.1029 0.0929 0.1589 1
O O5 8 0.1050 0.0895 0.7020 1
O O6 8 0.1535 0.6668 0.8411 1
O O7 8 0.1652 0.1019 0.8478 1
O O8 4 0.1028 0.7500 0.2780 1

