data_Sr1Ni1O3
_symmetry_space_group_name_H-M Pnma
_cell_length_a 5.7570
_cell_length_b 3.3643
_cell_length_c 5.3700
_cell_angle_alpha 90.0000
_cell_angle_beta 90.0000
_cell_angle_gamma 90.0000
_symmetry_Int_Tables_number 62
_chemical_formula_structural SrNiO3
_chemical_formula_sum 'Sr12 Ni12 O36'
_cell_volume 104.4935
_cell_formula_units_Z 12
loop_
 _symmetry_equiv_pos_site_id
 _symmetry_equiv_pos_as_xyz
  1  '-x, y+1/2, -z'
  2  '-x, -y, -z'
  3  '-x+1/2, -y, z+1/2'
  4  'x+1/2, -y+1/2, -z+1/2'
  5  'x, y, z'
  6  'x-1/2, y, -z-1/2'
  7  '-x-1/2, y-1/2, z-1/2'
  8  'x, -y-1/2, z'
loop_
_atom_site_type_symbol
_atom_site_label
_atom_site_symmetry_multiplicity
_atom_site_fract_x
_atom_site_fract_y
_atom_site_fract_z
_atom_site_occupancy
Sr Sr0 4 0.0581 0.7500 0.1295 1
Sr Sr1 4 0.1098 0.7500 0.6258 1
Sr Sr2 4 0.2171 0.7500 0.8864 1
Ni Ni3 4 0.0046 0.7500 0.6259 1
Ni Ni4 4 0.1662 0.2500 0.8647 1
Ni Ni5 4 0.1666 0.2500 0.1159 1
O O6 8 0.0779 0.5347 0.8730 1
O O7 8 0.0883 0.5074 0.3898 1
O O8 8 0.2488 0.5049 0.1405 1
O O9 4 0.0849 0.2500 0.1261 1
O O10 4 0.0855 0.2500 0.6260 1
O O11 4 0.2442 0.2500 0.8913 1

