data_Nd1Ni1O3
_symmetry_space_group_name_H-M Pnma
_cell_length_a 5.7260
_cell_length_b 3.5851
_cell_length_c 5.4062
_cell_angle_alpha 90.0000
_cell_angle_beta 90.0000
_cell_angle_gamma 90.0000
_symmetry_Int_Tables_number 62
_chemical_formula_structural NdNiO3
_chemical_formula_sum 'Nd12 Ni12 O36'
_cell_volume 110.8495
_cell_formula_units_Z 12
loop_
 _symmetry_equiv_pos_site_id
 _symmetry_equiv_pos_as_xyz
  1  '-x, y+1/2, -z'
  2  '-x, -y, -z'
  3  '-x+1/2, -y, z+1/2'
  4  'x+1/2, -y+1/2, -z+1/2'
  5  'x, y, z'
  6  'x-1/2, y, -z-1/2'
  7  '-x-1/2, y-1/2, z-1/2'
  8  'x, -y-1/2, z'
loop_
_atom_site_type_symbol
_atom_site_label
_atom_site_symmetry_multiplicity
_atom_site_fract_x
_atom_site_fract_y
_atom_site_fract_z
_atom_site_occupancy
Nd Nd0 4 0.0820 0.7500 0.9652 1
Nd Nd1 4 0.1047 0.2500 0.5368 1
Nd Nd2 4 0.2192 0.7500 0.3875 1
Ni Ni3 4 0.0030 0.7500 0.5017 1
Ni Ni4 4 0.1483 0.2500 0.1366 1
Ni Ni5 4 0.1882 0.7500 0.7373 1
O O6 4 0.0081 0.2500 0.8999 1
O O7 4 0.0492 0.2500 0.3369 1
O O8 4 0.0530 0.2500 0.1355 1
O O9 4 0.0758 0.7500 0.6059 1
O O10 4 0.1640 0.7500 0.2323 1
O O11 4 0.1807 0.2500 0.9641 1
O O12 4 0.1915 0.2500 0.5602 1
O O13 4 0.2164 0.7500 0.7764 1
O O14 4 0.2244 0.7500 0.0865 1

