data_Sr1Co1O3
_symmetry_space_group_name_H-M Pnma
_cell_length_a 5.4816
_cell_length_b 3.2981
_cell_length_c 6.6671
_cell_angle_alpha 90.0000
_cell_angle_beta 90.0000
_cell_angle_gamma 90.0000
_symmetry_Int_Tables_number 62
_chemical_formula_structural SrCoO3
_chemical_formula_sum 'Sr12 Co12 O18'
_cell_volume 120.6917
_cell_formula_units_Z 12
loop_
 _symmetry_equiv_pos_site_id
 _symmetry_equiv_pos_as_xyz
  1  '-x, y+1/2, -z'
  2  '-x, -y, -z'
  3  '-x+1/2, -y, z+1/2'
  4  'x+1/2, -y+1/2, -z+1/2'
  5  'x, y, z'
  6  'x-1/2, y, -z-1/2'
  7  '-x-1/2, y-1/2, z-1/2'
  8  'x, -y-1/2, z'
loop_
_atom_site_type_symbol
_atom_site_label
_atom_site_symmetry_multiplicity
_atom_site_fract_x
_atom_site_fract_y
_atom_site_fract_z
_atom_site_occupancy
Sr Sr0 4 0.0346 0.7500 0.3933 1
Sr Sr1 4 0.1633 0.7500 0.9707 1
Sr Sr2 4 0.2175 0.2500 0.2016 1
Co Co3 4 0.0558 0.2500 0.8187 1
Co Co4 4 0.1078 0.7500 0.6918 1
Co Co5 4 0.1585 0.2500 0.5234 1
O O6 4 0.0076 0.2500 0.1083 1
O O7 4 0.0699 0.7500 0.1622 1
O O8 4 0.1130 0.2500 0.3826 1
O O9 4 0.2202 0.7500 0.8001 1
O O10 4 0.2307 0.7500 0.5810 1

