data_Pr1Ni1O3
_symmetry_space_group_name_H-M Pnma
_cell_length_a 5.5540
_cell_length_b 7.5110
_cell_length_c 5.3507
_cell_angle_alpha 90.0000
_cell_angle_beta 90.0000
_cell_angle_gamma 90.0000
_symmetry_Int_Tables_number 62
_chemical_formula_structural PrNiO3
_chemical_formula_sum 'Pr4 Ni4 O12'
_cell_volume 222.6351
_cell_formula_units_Z 4
loop_
 _symmetry_equiv_pos_site_id
 _symmetry_equiv_pos_as_xyz
  1  '-x, y+1/2, -z'
  2  '-x, -y, -z'
  3  '-x+1/2, -y, z+1/2'
  4  'x+1/2, -y+1/2, -z+1/2'
  5  'x, y, z'
  6  'x-1/2, y, -z-1/2'
  7  '-x-1/2, y-1/2, z-1/2'
  8  'x, -y-1/2, z'
loop_
_atom_site_type_symbol
_atom_site_label
_atom_site_symmetry_multiplicity
_atom_site_fract_x
_atom_site_fract_y
_atom_site_fract_z
_atom_site_occupancy
Pr Pr0 4 0.0000 0.0000 0.0000 1
Ni Ni1 4 0.0233 0.7500 0.5316 1
O O2 8 0.1634 0.5844 0.3564 1
O O3 4 0.1077 0.7500 0.8556 1

