data_Ca1Fe1O3
_symmetry_space_group_name_H-M Pnma
_cell_length_a 5.2795
_cell_length_b 3.2503
_cell_length_c 5.8237
_cell_angle_alpha 90.0000
_cell_angle_beta 90.0000
_cell_angle_gamma 90.0000
_symmetry_Int_Tables_number 62
_chemical_formula_structural CaFeO3
_chemical_formula_sum 'Ca4 Fe4 O12'
_cell_volume 99.8068
_cell_formula_units_Z 4
loop_
 _symmetry_equiv_pos_site_id
 _symmetry_equiv_pos_as_xyz
  1  '-x, y+1/2, -z'
  2  '-x, -y, -z'
  3  '-x+1/2, -y, z+1/2'
  4  'x+1/2, -y+1/2, -z+1/2'
  5  'x, y, z'
  6  'x-1/2, y, -z-1/2'
  7  '-x-1/2, y-1/2, z-1/2'
  8  'x, -y-1/2, z'
loop_
_atom_site_type_symbol
_atom_site_label
_atom_site_symmetry_multiplicity
_atom_site_fract_x
_atom_site_fract_y
_atom_site_fract_z
_atom_site_occupancy
Ca Ca0 4 0.0541 0.2500 0.7981 1
Fe Fe1 4 0.0000 0.0000 0.5000 1
O O2 8 0.2023 0.5418 0.1949 1
O O3 4 0.0234 0.7500 0.5855 1

