data_Pr1Co1O3
_symmetry_space_group_name_H-M Pnma
_cell_length_a 5.7838
_cell_length_b 3.5743
_cell_length_c 5.4290
_cell_angle_alpha 90.0000
_cell_angle_beta 90.0000
_cell_angle_gamma 90.0000
_symmetry_Int_Tables_number 62
_chemical_formula_structural PrCoO3
_chemical_formula_sum 'Pr12 Co14 O36'
_cell_volume 112.1734
_cell_formula_units_Z 12
loop_
 _symmetry_equiv_pos_site_id
 _symmetry_equiv_pos_as_xyz
  1  '-x, y+1/2, -z'
  2  '-x, -y, -z'
  3  '-x+1/2, -y, z+1/2'
  4  'x+1/2, -y+1/2, -z+1/2'
  5  'x, y, z'
  6  'x-1/2, y, -z-1/2'
  7  '-x-1/2, y-1/2, z-1/2'
  8  'x, -y-1/2, z'
loop_
_atom_site_type_symbol
_atom_site_label
_atom_site_symmetry_multiplicity
_atom_site_fract_x
_atom_site_fract_y
_atom_site_fract_z
_atom_site_occupancy
Pr Pr0 4 0.0859 0.2500 0.5290 1
Pr Pr1 4 0.1338 0.7500 0.0335 1
Pr Pr2 4 0.2214 0.2500 0.0416 1
Co Co3 4 0.0529 0.7500 0.5174 1
Co Co4 4 0.0697 0.2500 0.0019 1
Co Co5 4 0.1849 0.7500 0.5267 1
Co Co6 4 0.1867 0.7500 0.5072 1
O O7 8 0.0065 0.0137 0.2678 1
O O8 8 0.1561 0.5191 0.8844 1
O O9 8 0.2286 0.5097 0.3649 1
O O10 4 0.0720 0.2500 0.0791 1
O O11 4 0.1281 0.7500 0.5933 1
O O12 4 0.1854 0.2500 0.6305 1

