data_image0
_chemical_formula_structural       NaOFe4O5NaOFeO2
_chemical_formula_sum              "Na2 O9 Fe5"
_cell_length_a       5.583847038546238
_cell_length_b       5.57551183073719
_cell_length_c       8.168420791625977
_cell_angle_alpha    100.51328871011953
_cell_angle_beta     107.52444436782373
_cell_angle_gamma    105.51426301793454

_space_group_name_H-M_alt    "P 1"
_space_group_IT_number       1

loop_
  _space_group_symop_operation_xyz
  'x, y, z'

loop_
  _atom_site_type_symbol
  _atom_site_label
  _atom_site_symmetry_multiplicity
  _atom_site_fract_x
  _atom_site_fract_y
  _atom_site_fract_z
  _atom_site_occupancy
  Na  Na1       1.0  0.8278644087439287  0.1831853840415171  0.8580339554070543  1.0000
  O   O1        1.0  0.9986239665268164  0.8870660664531013  0.7586296197761674  1.0000
  Fe  Fe1       1.0  0.9463867544260381  0.5557172294904688  0.6057439449240785  1.0000
  Fe  Fe2       1.0  0.0391948338611489  0.5859326711674688  0.2851634615804849  1.0000
  Fe  Fe3       1.0  0.09219215048202072  0.7752141350448956  0.9656007879161872  1.0000
  Fe  Fe4       1.0  0.4177412400806221  0.2093876604824595  0.33605074924015477  1.0000
  O   O2        1.0  0.20848026916334747  0.5151542424242835  0.8548420075010963  1.0000
  O   O3        1.0  0.15061864350215828  0.9485520727512632  0.3642086981355859  1.0000
  O   O4        1.0  0.19592639741551962  0.36573365319447604  0.1633014383477279  1.0000
  O   O5        1.0  0.6582710137002593  0.2761575572345231  0.5843298433712092  1.0000
  O   O6        1.0  0.44323804996335764  0.9333476433665234  0.1513117407379303  1.0000
  Na  Na2       1.0  0.2484240823001186  0.18987415789440976  0.6508513684634614  1.0000
  O   O7        1.0  0.18842223266390207  0.5099495658888348  0.4946906271362646  1.0000
  Fe  Fe5       1.0  0.49042788232674084  0.5873860725087142  0.10402877627579118  1.0000
  O   O8        1.0  0.8106386671146895  0.583338798042222  0.03893832868001271  1.0000
  O   O9        1.0  0.7080950152177081  0.5212233076253586  0.33339259109107505  1.0000
