data_image0
_chemical_formula_structural       Fe4O2FeFOF2FeFO
_chemical_formula_sum              "Fe6 O4 F4"
_cell_length_a       5.656310524763832
_cell_length_b       6.24065013542511
_cell_length_c       5.926465034484863
_cell_angle_alpha    59.127296225837505
_cell_angle_beta     89.24607259616336
_cell_angle_gamma    88.3157802935742

_space_group_name_H-M_alt    "P 1"
_space_group_IT_number       1

loop_
  _space_group_symop_operation_xyz
  'x, y, z'

loop_
  _atom_site_type_symbol
  _atom_site_label
  _atom_site_symmetry_multiplicity
  _atom_site_fract_x
  _atom_site_fract_y
  _atom_site_fract_z
  _atom_site_occupancy
  Fe  Fe1       1.0  0.9136277432122686  0.5957120654042282  0.5572289225398506  1.0000
  Fe  Fe2       1.0  0.8258402946571265  0.963583051457887  0.837165296610666  1.0000
  Fe  Fe3       1.0  0.3318025769454865  0.9993996024557317  0.17122465310042528  1.0000
  Fe  Fe4       1.0  0.29233413938077146  0.6336302757683892  0.011102373094377357  1.0000
  O   O1        1.0  0.4752630302144419  0.9549126026031822  0.867181122522393  1.0000
  O   O2        1.0  0.21623989866830395  0.6385581490392488  0.3519936206322775  1.0000
  Fe  Fe5       1.0  0.3432560567399519  0.29540142459010754  0.6123663186442145  1.0000
  F   F1        1.0  0.7094851734377055  0.3874284922017979  0.42116618235388203  1.0000
  O   O3        1.0  0.03121972653355655  0.1915082342671552  0.8856027721615618  1.0000
  F   F2        1.0  0.17122478817541323  0.16005317790181475  0.3649452035697673  1.0000
  F   F3        1.0  0.6902008660690874  0.9369135500195678  0.3459562353973786  1.0000
  Fe  Fe6       1.0  0.845185517664715  0.29429778463245443  0.132847770312913  1.0000
  F   F4        1.0  0.4988055528595459  0.3997790519510707  0.9240277400918221  1.0000
  O   O4        1.0  0.9619722372470222  0.6517508027218825  0.8659054642725926  1.0000
