data_image0
_chemical_formula_structural       Co6N4
_chemical_formula_sum              "Co6 N4"
_cell_length_a       4.742270783290938
_cell_length_b       4.748135580439297
_cell_length_c       4.800830364227295
_cell_angle_alpha    100.14771025986735
_cell_angle_beta     100.09815067707156
_cell_angle_gamma    119.77468822721202

_space_group_name_H-M_alt    "P 1"
_space_group_IT_number       1

loop_
  _space_group_symop_operation_xyz
  'x, y, z'

loop_
  _atom_site_type_symbol
  _atom_site_label
  _atom_site_symmetry_multiplicity
  _atom_site_fract_x
  _atom_site_fract_y
  _atom_site_fract_z
  _atom_site_occupancy
  Co  Co1       1.0  0.07328055800784739  0.22418379855597673  0.5322020052926154  1.0000
  Co  Co2       1.0  0.7268720277779482  0.5505284679217761  0.5333054659047906  1.0000
  Co  Co3       1.0  0.22706361181195703  0.05056696738001065  0.03355884286925515  1.0000
  Co  Co4       1.0  0.9010635617579329  0.39637598320848233  0.03183487822750088  1.0000
  Co  Co5       1.0  0.5529150363991465  0.7043051709830025  0.03562202186530792  1.0000
  Co  Co6       1.0  0.37957247996342175  0.8767613763010507  0.535332679041563  1.0000
  N   N1        1.0  0.3108886175542024  0.46698179749066066  0.28406324932589805  1.0000
  N   N2        1.0  0.9716281287722118  0.8061697476557289  0.28391489402713405  1.0000
  N   N3        1.0  0.14232146720774588  0.6336594828700772  0.7828460940641467  1.0000
  N   N4        1.0  0.4825052910818603  0.29505988977252345  0.7824832799304292  1.0000
