data_image0
_chemical_formula_structural       FeAlFe5AlFe2
_chemical_formula_sum              "Fe8 Al2"
_cell_length_a       2.905885906320957
_cell_length_b       4.025319094172765
_cell_length_c       10.255088806152344
_cell_angle_alpha    101.25478179385033
_cell_angle_beta     90.16060073995651
_cell_angle_gamma    89.98551567428446

_space_group_name_H-M_alt    "P 1"
_space_group_IT_number       1

loop_
  _space_group_symop_operation_xyz
  'x, y, z'

loop_
  _atom_site_type_symbol
  _atom_site_label
  _atom_site_symmetry_multiplicity
  _atom_site_fract_x
  _atom_site_fract_y
  _atom_site_fract_z
  _atom_site_occupancy
  Fe  Fe1       1.0  0.7981644856074397  0.26951339898094745  0.6730410458315362  1.0000
  Al  Al1       1.0  0.29781612819573666  0.5725281841366135  0.2784552570151669  1.0000
  Fe  Fe2       1.0  0.7979190936857791  0.06940275483006288  0.27156171209379487  1.0000
  Fe  Fe3       1.0  0.7979708309507423  0.47041401341775574  0.07490165511706436  1.0000
  Fe  Fe4       1.0  0.7981450552155868  0.8667076823176855  0.8675336840618989  1.0000
  Fe  Fe5       1.0  0.7982477532255255  0.6731444602687889  0.4784528317775958  1.0000
  Fe  Fe6       1.0  0.2981669588591008  0.7697530974036402  0.6732679601610863  1.0000
  Al  Al2       1.0  0.2976928963275469  0.9673358786871548  0.06771440018589585  1.0000
  Fe  Fe7       1.0  0.29811722058533136  0.3698805279689528  0.8736782669595244  1.0000
  Fe  Fe8       1.0  0.2980463223887652  0.16929447760116623  0.4728483257228037  1.0000
