data_image0
_chemical_formula_structural       TaOGdOBaO3BaO
_chemical_formula_sum              "Ta1 O6 Gd1 Ba2"
_cell_length_a       6.046030978937319
_cell_length_b       6.0469471994683754
_cell_length_c       6.069861888885498
_cell_angle_alpha    119.88197823369515
_cell_angle_beta     119.89808252082453
_cell_angle_gamma    90.03728239100663

_space_group_name_H-M_alt    "P 1"
_space_group_IT_number       1

loop_
  _space_group_symop_operation_xyz
  'x, y, z'

loop_
  _atom_site_type_symbol
  _atom_site_label
  _atom_site_symmetry_multiplicity
  _atom_site_fract_x
  _atom_site_fract_y
  _atom_site_fract_z
  _atom_site_occupancy
  Ta  Ta1       1.0  0.2917596104259054  0.8129063247593316  0.7114399084009551  1.0000
  O   O1        1.0  0.026887566544641566  0.6108628521346029  0.7116787441693926  1.0000
  Gd  Gd1       1.0  0.7917799947806192  0.3131754091268806  0.7116008997070993  1.0000
  O   O2        1.0  0.05710785506830042  0.5784989594878646  0.2427895674753744  1.0000
  Ba  Ba1       1.0  0.0418421838084744  0.06327006159380842  0.211563153507578  1.0000
  O   O3        1.0  0.5263501998196686  0.047371969310967585  0.18006491700769414  1.0000
  O   O4        1.0  0.4939208631911952  0.5477134592841579  0.7117358453428091  1.0000
  O   O5        1.0  0.08973774259442016  0.07835353120755159  0.711145579108458  1.0000
  Ba  Ba2       1.0  0.5419232255032113  0.562945485169256  0.21154992281372906  1.0000
  O   O6        1.0  0.5566470613223576  0.014832900296026214  0.7112544766215357  1.0000
