data_image0
_chemical_formula_structural       CoGdCo3PCoPCoPCo
_chemical_formula_sum              "Co7 Gd1 P3"
_cell_length_a       3.576731792131991
_cell_length_b       6.368505934680785
_cell_length_c       7.030688762664795
_cell_angle_alpha    123.4932348028724
_cell_angle_beta     90.01422978907064
_cell_angle_gamma    89.94368075699118

_space_group_name_H-M_alt    "P 1"
_space_group_IT_number       1

loop_
  _space_group_symop_operation_xyz
  'x, y, z'

loop_
  _atom_site_type_symbol
  _atom_site_label
  _atom_site_symmetry_multiplicity
  _atom_site_fract_x
  _atom_site_fract_y
  _atom_site_fract_z
  _atom_site_occupancy
  Co  Co1       1.0  0.27283924843495416  0.9420222638211486  0.24162277525177248  1.0000
  Gd  Gd1       1.0  0.7730876810108488  0.38944196616755905  0.46531465542777295  1.0000
  Co  Co2       1.0  0.7731676687502909  0.8790236706276092  0.46919026944608666  1.0000
  Co  Co3       1.0  0.7729134551478813  0.8792972565402425  0.9512587787113731  1.0000
  Co  Co4       1.0  0.2730408603478373  0.5397881274371296  0.2256099134598989  1.0000
  P   P1        1.0  0.27307769604532756  0.12967602838195613  0.6132295719907075  1.0000
  Co  Co5       1.0  0.27322968752633187  0.8307394983260364  0.6862583166559988  1.0000
  P   P2        1.0  0.7731188531917882  0.6549808977196471  0.09897471935493894  1.0000
  Co  Co6       1.0  0.27303430508627374  0.5399192566969713  0.8553448914381873  1.0000
  P   P3        1.0  0.2730111193906479  0.12962532059945397  0.05730420424265131  1.0000
  Co  Co7       1.0  0.7730494742503695  0.23871734645667783  0.8892199396476749  1.0000
