data_image0
_chemical_formula_structural       FeFFeF3FeFFeF2FeF5Fe
_chemical_formula_sum              "Fe6 F12"
_cell_length_a       5.924283829466841
_cell_length_b       5.925204012968791
_cell_length_c       7.38603401184082
_cell_angle_alpha    77.76509172486725
_cell_angle_beta     77.71418613098903
_cell_angle_gamma    67.08903339471767

_space_group_name_H-M_alt    "P 1"
_space_group_IT_number       1

loop_
  _space_group_symop_operation_xyz
  'x, y, z'

loop_
  _atom_site_type_symbol
  _atom_site_label
  _atom_site_symmetry_multiplicity
  _atom_site_fract_x
  _atom_site_fract_y
  _atom_site_fract_z
  _atom_site_occupancy
  Fe  Fe1       1.0  0.9903018483308254  0.7686930294577107  0.06983548451489786  1.0000
  F   F1        1.0  0.5607784983350809  0.33733198123300184  0.5443221329920837  1.0000
  Fe  Fe2       1.0  0.4911528224880716  0.26713016604787254  0.06751579736412627  1.0000
  F   F2        1.0  0.059773788318296495  0.8382804385240906  0.5441209675385071  1.0000
  F   F3        1.0  0.17773601396185085  0.4549253285398019  0.8970267775816834  1.0000
  F   F4        1.0  0.2942658066266295  0.07161270055948117  0.2489186525516889  1.0000
  Fe  Fe3       1.0  0.8639437546298648  0.6422445781713634  0.7247000340006454  1.0000
  F   F5        1.0  0.677155971028721  0.45453184883670217  0.896614432190095  1.0000
  Fe  Fe4       1.0  0.42735475275069823  0.7042270901630814  0.39706891813087225  1.0000
  F   F6        1.0  0.6777645944458329  0.9541384572498202  0.8967944983735763  1.0000
  F   F7        1.0  0.1776670965865165  0.9541668890520923  0.8970824483147493  1.0000
  Fe  Fe5       1.0  0.36457693620749915  0.1415336579705344  0.7262993449590467  1.0000
  F   F8        1.0  0.29998928214542775  0.5750989919629734  0.21761857047096098  1.0000
  F   F9        1.0  0.7981095905200213  0.07683350112862071  0.21861405662771502  1.0000
  F   F10       1.0  0.5552166697746078  0.8341057901648422  0.5752745275906048  1.0000
  F   F11       1.0  0.056611657067839126  0.33346515985169084  0.5754429694362552  1.0000
  F   F12       1.0  0.7944933774180675  0.5720305438096374  0.24913111325713688  1.0000
  Fe  Fe6       1.0  0.9275287992354871  0.20432983382348682  0.39621102782509565  1.0000
