data_image0
_chemical_formula_structural       LiFe2LiMnO5
_chemical_formula_sum              "Li2 Fe2 Mn1 O5"
_cell_length_a       4.2116636431852115
_cell_length_b       5.304306283628817
_cell_length_c       5.2452898025512695
_cell_angle_alpha    78.2839737616175
_cell_angle_beta     66.34170823401192
_cell_angle_gamma    66.60632351943582

_space_group_name_H-M_alt    "P 1"
_space_group_IT_number       1

loop_
  _space_group_symop_operation_xyz
  'x, y, z'

loop_
  _atom_site_type_symbol
  _atom_site_label
  _atom_site_symmetry_multiplicity
  _atom_site_fract_x
  _atom_site_fract_y
  _atom_site_fract_z
  _atom_site_occupancy
  Li  Li1       1.0  0.5487266189906257  0.5509967809873871  0.8576441395472876  1.0000
  Fe  Fe1       1.0  0.15991611901437547  0.7342639557332659  0.4499907185096723  1.0000
  Fe  Fe2       1.0  0.3530172124060869  0.13020129399654715  0.6690591575358419  1.0000
  Li  Li2       1.0  0.7704288971970914  0.9198623292361977  0.04509504551030947  1.0000
  Mn  Mn1       1.0  0.9661795500449204  0.3374564946347592  0.2349161952413719  1.0000
  O   O1        1.0  0.08736758643370848  0.5101859570839428  0.8208069198227342  1.0000
  O   O2        1.0  0.2599416669327784  0.9328725943743009  0.05159278487013671  1.0000
  O   O3        1.0  0.4302911466642545  0.3596576446274226  0.28440150678378306  1.0000
  O   O4        1.0  0.6446579093895103  0.7580636151005118  0.45839598858714925  1.0000
  O   O5        1.0  0.8813124299013538  0.1007047453879854  0.6421335933191806  1.0000
