data_image0
_chemical_formula_structural       OMnOMnCrMn4O7
_chemical_formula_sum              "O9 Mn6 Cr1"
_cell_length_a       3.251440865004959
_cell_length_b       3.2553249594772202
_cell_length_c       19.887643814086914
_cell_angle_alpha    90.04101778960867
_cell_angle_beta     90.01431858137623
_cell_angle_gamma    119.92808280266134

_space_group_name_H-M_alt    "P 1"
_space_group_IT_number       1

loop_
  _space_group_symop_operation_xyz
  'x, y, z'

loop_
  _atom_site_type_symbol
  _atom_site_label
  _atom_site_symmetry_multiplicity
  _atom_site_fract_x
  _atom_site_fract_y
  _atom_site_fract_z
  _atom_site_occupancy
  O   O1        1.0  0.4644643947268666  0.8398743854520707  0.6876248119195771  1.0000
  Mn  Mn1       1.0  0.13330629559438936  0.17240786485568013  0.035636961682081976  1.0000
  O   O2        1.0  0.13187396582471506  0.173589021924156  0.5881272552292212  1.0000
  Mn  Mn2       1.0  0.7994794846709303  0.5051423900590025  0.16855609409390823  1.0000
  Cr  Cr1       1.0  0.7988816485520323  0.5055951459042624  0.8878040911456108  1.0000
  Mn  Mn3       1.0  0.1330533773696621  0.17206804542263693  0.29971587679368566  1.0000
  Mn  Mn4       1.0  0.7992406487556808  0.5065499551787727  0.4483306706218096  1.0000
  Mn  Mn5       1.0  0.46593683996346763  0.839376688273232  0.5893885491581919  1.0000
  Mn  Mn6       1.0  0.13103896364104883  0.17264153214281083  0.7367454168900767  1.0000
  O   O3        1.0  0.4671469615950136  0.8396546836870082  0.10073020331813201  1.0000
  O   O4        1.0  0.4667012703186049  0.8387852306909045  0.2335790096580495  1.0000
  O   O5        1.0  0.46650105654577945  0.8396785845792177  0.48613208513569167  1.0000
  O   O6        1.0  0.7994344818900876  0.5056887255357648  0.34918609281240215  1.0000
  O   O7        1.0  0.7982658747186314  0.5052371606588844  0.7868268490249107  1.0000
  O   O8        1.0  0.799275994712428  0.5052865752129837  0.987480402218153  1.0000
  O   O9        1.0  0.13127176285783163  0.17196273687932653  0.8868451715495204  1.0000
