data_image0
_chemical_formula_structural       MnOMn3O7
_chemical_formula_sum              "Mn4 O8"
_cell_length_a       2.927847148465574
_cell_length_b       6.6387250521577394
_cell_length_c       7.884467601776123
_cell_angle_alpha    86.28416147837491
_cell_angle_beta     79.20297668083055
_cell_angle_gamma    77.1113669586713

_space_group_name_H-M_alt    "P 1"
_space_group_IT_number       1

loop_
  _space_group_symop_operation_xyz
  'x, y, z'

loop_
  _atom_site_type_symbol
  _atom_site_label
  _atom_site_symmetry_multiplicity
  _atom_site_fract_x
  _atom_site_fract_y
  _atom_site_fract_z
  _atom_site_occupancy
  Mn  Mn1       1.0  0.2951346337611855  0.3248672485144868  0.1646590824790776  1.0000
  O   O1        1.0  0.11176449846666486  0.6044443843924424  0.2517885269852941  1.0000
  Mn  Mn2       1.0  0.7953399995960342  0.8244490630468421  0.6662124399343651  1.0000
  Mn  Mn3       1.0  0.04600229875420182  0.07505237297694033  0.9146478770472269  1.0000
  Mn  Mn4       1.0  0.5446315393108538  0.5740135906677863  0.4159863289329219  1.0000
  O   O2        1.0  0.9773275859661479  0.5429785256994156  0.5802016260078742  1.0000
  O   O3        1.0  0.3624023192925942  0.8535832763108084  0.5026438826750227  1.0000
  O   O4        1.0  0.6131161468493314  0.10506044315370945  0.750619888085218  1.0000
  O   O5        1.0  0.4777386776110352  0.04433938846579321  0.0773903723288187  1.0000
  O   O6        1.0  0.7272632120177775  0.2938091156402759  0.3282839955852487  1.0000
  O   O7        1.0  0.8630434883165864  0.35564628198599646  0.000359654425271596  1.0000
  O   O8        1.0  0.2277994171192631  0.794128477154295  0.8295288679508109  1.0000
