data_image0
_chemical_formula_structural       CoFe2Co2
_chemical_formula_sum              "Co3 Fe2"
_cell_length_a       2.460121308027856
_cell_length_b       2.460450299009828
_cell_length_c       10.089683532714844
_cell_angle_alpha    94.69014976553936
_cell_angle_beta     94.6210354011375
_cell_angle_gamma    109.34851337753778

_space_group_name_H-M_alt    "P 1"
_space_group_IT_number       1

loop_
  _space_group_symop_operation_xyz
  'x, y, z'

loop_
  _atom_site_type_symbol
  _atom_site_label
  _atom_site_symmetry_multiplicity
  _atom_site_fract_x
  _atom_site_fract_y
  _atom_site_fract_z
  _atom_site_occupancy
  Co  Co1       1.0  0.8102818708831594  0.41754799986356994  0.6915076378997  1.0000
  Fe  Fe1       1.0  0.610606848775908  0.2198303802873687  0.2934871915502524  1.0000
  Fe  Fe2       1.0  0.008005598922405053  0.6179087765531943  0.08848626138112388  1.0000
  Co  Co2       1.0  0.21167048983801498  0.8193452966051179  0.4930413064316326  1.0000
  Co  Co3       1.0  0.4089139400313283  0.01752569744955097  0.888393342919376  1.0000
