data_image0
_chemical_formula_structural       HOZrFeZr2FeZrHO11
_chemical_formula_sum              "H2 O12 Zr4 Fe2"
_cell_length_a       6.039269669733862
_cell_length_b       6.4912434533790835
_cell_length_c       6.486858367919922
_cell_angle_alpha    89.03439118939657
_cell_angle_beta     86.23363170561237
_cell_angle_gamma    86.2724743460192

_space_group_name_H-M_alt    "P 1"
_space_group_IT_number       1

loop_
  _space_group_symop_operation_xyz
  'x, y, z'

loop_
  _atom_site_type_symbol
  _atom_site_label
  _atom_site_symmetry_multiplicity
  _atom_site_fract_x
  _atom_site_fract_y
  _atom_site_fract_z
  _atom_site_occupancy
  H   H1        1.0  0.7474116094501059  0.42752465623775066  0.3251748374866801  1.0000
  O   O1        1.0  0.6992990381000532  0.23616807182540817  0.8090112211304564  1.0000
  Zr  Zr1       1.0  0.49615234152284665  0.8604338163691102  0.3931863911172331  1.0000
  Fe  Fe1       1.0  0.2468277515023686  0.427447348772041  0.3250226670315775  1.0000
  Zr  Zr2       1.0  0.49793830568011854  0.49541383948924966  0.7575914863296345  1.0000
  Zr  Zr3       1.0  0.9980800752863515  0.3604684473427229  0.8931782240286045  1.0000
  Fe  Fe2       1.0  0.7479414336202715  0.9280394313528253  0.8250697854050975  1.0000
  Zr  Zr4       1.0  0.9972932346708822  0.9958318474945461  0.25719550315519846  1.0000
  H   H2        1.0  0.24713869448210313  0.927240789280165  0.8254950039058471  1.0000
  O   O2        1.0  0.07520735292523678  0.017755844464366122  0.9149573447072699  1.0000
  O   O3        1.0  0.29744675787357416  0.4436923272644799  0.017405204067102185  1.0000
  O   O4        1.0  0.1987760512309847  0.41068503307912085  0.6327927708905969  1.0000
  O   O5        1.0  0.41917458215212117  0.8373261096959097  0.7356522680154233  1.0000
  O   O6        1.0  0.9200764292602109  0.33848559887954055  0.23523601825667562  1.0000
  O   O7        1.0  0.7950160496729991  0.9464412930791248  0.5173550248950707  1.0000
  O   O8        1.0  0.698551595093836  0.9104974870366819  0.1328562044421683  1.0000
  O   O9        1.0  0.19795481901243742  0.7355495094885396  0.30881908511127865  1.0000
  O   O10       1.0  0.29595708897118767  0.11951497978013803  0.34240660122736744  1.0000
  O   O11       1.0  0.575059413534969  0.5173524621904244  0.41477760598731034  1.0000
  O   O12       1.0  0.7969509958728848  0.6208316685471956  0.8400583859229339  1.0000
