data_image0
_chemical_formula_structural       MnCo2MnCoMgCoMgCo4
_chemical_formula_sum              "Mn2 Co8 Mg2"
_cell_length_a       4.707660391808727
_cell_length_b       4.706687879817461
_cell_length_c       8.550548553466797
_cell_angle_alpha    74.12718269169606
_cell_angle_beta     74.11272321049282
_cell_angle_gamma    60.07848099939262

_space_group_name_H-M_alt    "P 1"
_space_group_IT_number       1

loop_
  _space_group_symop_operation_xyz
  'x, y, z'

loop_
  _atom_site_type_symbol
  _atom_site_label
  _atom_site_symmetry_multiplicity
  _atom_site_fract_x
  _atom_site_fract_y
  _atom_site_fract_z
  _atom_site_occupancy
  Mn  Mn1       1.0  0.4041920002363403  0.7825632695863582  0.9601398712051831  1.0000
  Co  Co1       1.0  0.6295129055122128  0.5207089183235923  0.26013094219902955  1.0000
  Co  Co2       1.0  0.04701112863457166  0.42520073160446076  0.03243772702050618  1.0000
  Mn  Mn2       1.0  0.6891454463363061  0.06775327102341436  0.10592892020443168  1.0000
  Co  Co3       1.0  0.14131922989780413  0.008016204281845725  0.2602750660184964  1.0000
  Mg  Mg1       1.0  0.2117473184731844  0.5905412447767365  0.5368931293820595  1.0000
  Co  Co4       1.0  0.9516807196007085  0.843323766473554  0.8054242729191796  1.0000
  Mg  Mg2       1.0  0.8808761843547745  0.2597781115097548  0.5296457413182057  1.0000
  Co  Co5       1.0  0.5455375325893276  0.9248653044978716  0.5352051851936424  1.0000
  Co  Co6       1.0  0.9517677435488707  0.3301215764805504  0.8054537769651949  1.0000
  Co  Co7       1.0  0.14195022029683455  0.5200384865611717  0.26019570207884285  1.0000
  Co  Co8       1.0  0.46496444915929724  0.3296516840233601  0.8055103419399366  1.0000
