data_image0
_chemical_formula_structural       ZrTiFe
_chemical_formula_sum              "Zr1 Ti1 Fe1"
_cell_length_a       3.1020069903963607
_cell_length_b       3.10203919717787
_cell_length_c       5.554137706756592
_cell_angle_alpha    106.1809328622047
_cell_angle_beta     106.20468714474767
_cell_angle_gamma    90.02051371769693

_space_group_name_H-M_alt    "P 1"
_space_group_IT_number       1

loop_
  _space_group_symop_operation_xyz
  'x, y, z'

loop_
  _atom_site_type_symbol
  _atom_site_label
  _atom_site_symmetry_multiplicity
  _atom_site_fract_x
  _atom_site_fract_y
  _atom_site_fract_z
  _atom_site_occupancy
  Zr  Zr1       1.0  0.4826633937473904  0.6389305011619488  0.6925221084959835  1.0000
  Ti  Ti1       1.0  0.7807617792879723  0.9361441727560241  0.28900793132679875  1.0000
  Fe  Fe1       1.0  0.1505999251272165  0.30598652459353665  0.02768405109080204  1.0000
