data_image0
_chemical_formula_structural       Fe3O2Fe4O2FeO6
_chemical_formula_sum              "Fe8 O10"
_cell_length_a       5.492038893789142
_cell_length_b       6.094302415364126
_cell_length_c       6.562584400177002
_cell_angle_alpha    103.48847942105309
_cell_angle_beta     96.44998883756226
_cell_angle_gamma    106.20040522707285

_space_group_name_H-M_alt    "P 1"
_space_group_IT_number       1

loop_
  _space_group_symop_operation_xyz
  'x, y, z'

loop_
  _atom_site_type_symbol
  _atom_site_label
  _atom_site_symmetry_multiplicity
  _atom_site_fract_x
  _atom_site_fract_y
  _atom_site_fract_z
  _atom_site_occupancy
  Fe  Fe1       1.0  0.7640692600423511  0.3422421821043792  0.595167338951551  1.0000
  Fe  Fe2       1.0  0.58198130203311  0.43940591794286327  0.16458271505897346  1.0000
  Fe  Fe3       1.0  0.582254648588965  0.9395611890893123  0.16505973128063053  1.0000
  O   O1        1.0  0.8365835548099757  0.7812622777457394  0.27748954209593907  1.0000
  O   O2        1.0  0.07721640189238588  0.6842269898719266  0.6544346218200894  1.0000
  Fe  Fe4       1.0  0.1494621927437431  0.12370253407838351  0.33712637503615706  1.0000
  Fe  Fe5       1.0  0.7636335497575156  0.8418375848819982  0.5949760079506454  1.0000
  Fe  Fe6       1.0  0.33243897610592704  0.026012791873275667  0.7675098187704031  1.0000
  Fe  Fe7       1.0  0.14929775923721403  0.6235426076066074  0.33677503441454076  1.0000
  O   O3        1.0  0.45730298798683444  0.9830169670024107  0.4665153622174269  1.0000
  O   O4        1.0  0.4568987187763198  0.48308587155859256  0.4665499922155841  1.0000
  Fe  Fe8       1.0  0.33209314919499466  0.5263919826231793  0.76771569174089  1.0000
  O   O5        1.0  0.8369511365690875  0.2814074465024783  0.27784714167798946  1.0000
  O   O6        1.0  0.5926529168522863  0.36315706377324214  0.852661371435006  1.0000
  O   O7        1.0  0.32203358374690816  0.10233965491909264  0.07914450033586407  1.0000
  O   O8        1.0  0.07663052555861315  0.18351148043561505  0.6539810304802446  1.0000
  O   O9        1.0  0.3212319312682411  0.6019504076410942  0.07886527418244302  1.0000
  O   O10       1.0  0.5928740494148301  0.8633871674547139  0.8531363016625073  1.0000
