data_image0
_chemical_formula_structural       PdRhWRh
_chemical_formula_sum              "Pd1 Rh2 W1"
_cell_length_a       3.949112165635047
_cell_length_b       3.9494205784075906
_cell_length_c       4.705955505371094
_cell_angle_alpha    114.89462739081303
_cell_angle_beta     114.8754626918599
_cell_angle_gamma    90.00276883779792

_space_group_name_H-M_alt    "P 1"
_space_group_IT_number       1

loop_
  _space_group_symop_operation_xyz
  'x, y, z'

loop_
  _atom_site_type_symbol
  _atom_site_label
  _atom_site_symmetry_multiplicity
  _atom_site_fract_x
  _atom_site_fract_y
  _atom_site_fract_z
  _atom_site_occupancy
  Pd  Pd1       1.0  0.5144492393675462  0.8371613624430316  0.6444585329838133  1.0000
  Rh  Rh1       1.0  0.26421102786503686  0.0872954574937844  0.1442918919650032  1.0000
  W   W1        1.0  0.014550635297407048  0.33726287007469846  0.6443786030019044  1.0000
  Rh  Rh2       1.0  0.7646493923804629  0.5869010093899802  0.1443960665883136  1.0000
