data_image0
_chemical_formula_structural       TmGdFe3Ge2Fe5
_chemical_formula_sum              "Tm1 Gd1 Fe8 Ge2"
_cell_length_a       4.057505803754265
_cell_length_b       4.058956865521154
_cell_length_c       12.921101570129395
_cell_angle_alpha    90.01980322494435
_cell_angle_beta     90.01781563969296
_cell_angle_gamma    119.97510162631423

_space_group_name_H-M_alt    "P 1"
_space_group_IT_number       1

loop_
  _space_group_symop_operation_xyz
  'x, y, z'

loop_
  _atom_site_type_symbol
  _atom_site_label
  _atom_site_symmetry_multiplicity
  _atom_site_fract_x
  _atom_site_fract_y
  _atom_site_fract_z
  _atom_site_occupancy
  Tm  Tm1       1.0  0.12375204294804508  0.056537325145951674  0.9254247544542722  1.0000
  Gd  Gd1       1.0  0.12386542589845966  0.056963071062944154  0.4248282910208825  1.0000
  Fe  Fe1       1.0  0.7899115695762277  0.3899019070972041  0.8042862412286006  1.0000
  Fe  Fe2       1.0  0.4574917266055369  0.7235551489553282  0.7576858999119094  1.0000
  Fe  Fe3       1.0  0.7904561174563252  0.389808387134864  0.04564084083693881  1.0000
  Ge  Ge1       1.0  0.45749500291237727  0.7235332123496007  0.2822817268774676  1.0000
  Ge  Ge2       1.0  0.45704010087106256  0.7235366110587729  0.5687279103358881  1.0000
  Fe  Fe4       1.0  0.12379981738961433  0.0566726563413787  0.16482616953265244  1.0000
  Fe  Fe5       1.0  0.12359560876665183  0.05704503825820732  0.685077667308723  1.0000
  Fe  Fe6       1.0  0.45702800062120497  0.7232727403980468  0.09299478711196071  1.0000
  Fe  Fe7       1.0  0.7908363951058801  0.39050826525458493  0.2293768527204625  1.0000
  Fe  Fe8       1.0  0.7903468016083932  0.39004552317950836  0.6213287111309883  1.0000
