data_image0
_chemical_formula_structural       SnEu3
_chemical_formula_sum              "Sn1 Eu3"
_cell_length_a       5.107531278742207
_cell_length_b       5.106527573032238
_cell_length_c       6.211141586303711
_cell_angle_alpha    114.29173809609011
_cell_angle_beta     114.32910129975981
_cell_angle_gamma    89.97458157503067

_space_group_name_H-M_alt    "P 1"
_space_group_IT_number       1

loop_
  _space_group_symop_operation_xyz
  'x, y, z'

loop_
  _atom_site_type_symbol
  _atom_site_label
  _atom_site_symmetry_multiplicity
  _atom_site_fract_x
  _atom_site_fract_y
  _atom_site_fract_z
  _atom_site_occupancy
  Sn  Sn1       1.0  0.021174396152572758  0.7241632939204282  0.6506341097968527  1.0000
  Eu  Eu1       1.0  0.772073983258969  0.9749101403034659  0.15141387207667364  1.0000
  Eu  Eu2       1.0  0.5214871755293646  0.22454528438730156  0.6518893834045288  1.0000
  Eu  Eu3       1.0  0.2710877661851184  0.47440150458446084  0.15091300019991893  1.0000
