data_image0
_chemical_formula_structural       NiCrO2CrOLiOLiCrO2
_chemical_formula_sum              "Ni1 Cr3 O6 Li2"
_cell_length_a       3.016157194059606
_cell_length_b       6.187984595597337
_cell_length_c       6.55690336227417
_cell_angle_alpha    102.96822296747106
_cell_angle_beta     101.74464237422944
_cell_angle_gamma    93.94430028114331

_space_group_name_H-M_alt    "P 1"
_space_group_IT_number       1

loop_
  _space_group_symop_operation_xyz
  'x, y, z'

loop_
  _atom_site_type_symbol
  _atom_site_label
  _atom_site_symmetry_multiplicity
  _atom_site_fract_x
  _atom_site_fract_y
  _atom_site_fract_z
  _atom_site_occupancy
  Ni  Ni1       1.0  0.9397121060941955  0.7678812746099892  0.1410228014434752  1.0000
  Cr  Cr1       1.0  0.6149003505442646  0.08838112569000452  0.47838616409483886  1.0000
  O   O1        1.0  0.4250959451709169  0.5259290926055347  0.1439663163599544  1.0000
  O   O2        1.0  0.7695207007648257  0.1905372735059402  0.8084530227985429  1.0000
  Cr  Cr2       1.0  0.6136731496722029  0.5913424487653431  0.47348180396189177  1.0000
  O   O3        1.0  0.8133504381337178  0.6402771477391759  0.8053274754370849  1.0000
  Li  Li1       1.0  0.9618325831247132  0.2337002151926164  0.1371831293044004  1.0000
  O   O4        1.0  0.4626376325446284  0.004244326811946636  0.15603061052498826  1.0000
  Li  Li2       1.0  0.26638111298980455  0.9415727845813956  0.8302003146020805  1.0000
  Cr  Cr3       1.0  0.29570618446429975  0.4199237235099762  0.8207190033001183  1.0000
  O   O5        1.0  0.08106750085493347  0.8655554048937117  0.48491367743194824  1.0000
  O   O6        1.0  0.1585501420164936  0.31813094035475503  0.48896929576742576  1.0000
