data_image0
_chemical_formula_structural       HNbFeH2Fe2H5
_chemical_formula_sum              "H8 Nb1 Fe3"
_cell_length_a       4.1921920816595675
_cell_length_b       4.199655154936533
_cell_length_c       4.213194847106934
_cell_angle_alpha    89.94399494996735
_cell_angle_beta     89.91354596851896
_cell_angle_gamma    89.90340996672637

_space_group_name_H-M_alt    "P 1"
_space_group_IT_number       1

loop_
  _space_group_symop_operation_xyz
  'x, y, z'

loop_
  _atom_site_type_symbol
  _atom_site_label
  _atom_site_symmetry_multiplicity
  _atom_site_fract_x
  _atom_site_fract_y
  _atom_site_fract_z
  _atom_site_occupancy
  H   H1        1.0  0.014847858776579494  0.366415560607271  0.41779479440330264  1.0000
  Nb  Nb1       1.0  0.28212475850945645  0.6347117432722622  0.1501592699437272  1.0000
  Fe  Fe1       1.0  0.2821283628959557  0.13484095072457478  0.6500459323590974  1.0000
  H   H2        1.0  0.014514291704277534  0.9021045571952927  0.41820475445782945  1.0000
  H   H3        1.0  0.014219058730563621  0.9022730594450636  0.8818909514457788  1.0000
  Fe  Fe2       1.0  0.7820382713309921  0.6343958976929699  0.6498975151981086  1.0000
  Fe  Fe3       1.0  0.7824056749673847  0.13439580856982053  0.14971977437721368  1.0000
  H   H4        1.0  0.5498540998626688  0.9025216112763056  0.41806092955637175  1.0000
  H   H5        1.0  0.549872337939196  0.3666132391174312  0.8818303336591238  1.0000
  H   H6        1.0  0.5490330452530693  0.3667492576861257  0.417902618411934  1.0000
  H   H7        1.0  0.014512017563031106  0.3666147892476453  0.8821343769666243  1.0000
  H   H8        1.0  0.5502251386249106  0.9024786362377433  0.882100820971311  1.0000
