data_image0
_chemical_formula_structural       Mn2OMnONiO6
_chemical_formula_sum              "Mn3 O8 Ni1"
_cell_length_a       2.8787182805772553
_cell_length_b       5.0147074795682665
_cell_length_c       9.754057884216309
_cell_angle_alpha    90.18330431070322
_cell_angle_beta     90.05990325393053
_cell_angle_gamma    89.96076306871474

_space_group_name_H-M_alt    "P 1"
_space_group_IT_number       1

loop_
  _space_group_symop_operation_xyz
  'x, y, z'

loop_
  _atom_site_type_symbol
  _atom_site_label
  _atom_site_symmetry_multiplicity
  _atom_site_fract_x
  _atom_site_fract_y
  _atom_site_fract_z
  _atom_site_occupancy
  Mn  Mn1       1.0  0.6969058518490572  0.4581510727369077  0.6349853275669421  1.0000
  Mn  Mn2       1.0  0.19688124944328741  0.9577919839005784  0.6352697019858546  1.0000
  O   O1        1.0  0.1975182741522741  0.6276947862962632  0.23447163392020845  1.0000
  Mn  Mn3       1.0  0.6975441586198224  0.455999017451715  0.13540761202749937  1.0000
  O   O2        1.0  0.6968475590621256  0.11837159756148963  0.23181341580421166  1.0000
  Ni  Ni1       1.0  0.19729626285490615  0.9561603067174543  0.1353904162198011  1.0000
  O   O3        1.0  0.6974825855618022  0.7940431837202567  0.038145348715197605  1.0000
  O   O4        1.0  0.1965565395240439  0.2894203062589648  0.5355268712662579  1.0000
  O   O5        1.0  0.6966502667753557  0.7904936675623258  0.5349713565534546  1.0000
  O   O6        1.0  0.19727365786081638  0.6252370485346628  0.7351369858596162  1.0000
  O   O7        1.0  0.1969657684832346  0.2874672706261335  0.036427729212328425  1.0000
  O   O8        1.0  0.6972025021773649  0.12549383973019837  0.7357857820970809  1.0000
