data_image0
_chemical_formula_structural       EuWEuMoO6
_chemical_formula_sum              "Eu2 W1 Mo1 O6"
_cell_length_a       5.7550972886577085
_cell_length_b       5.752914257795246
_cell_length_c       5.759105682373047
_cell_angle_alpha    60.13204393416805
_cell_angle_beta     60.09891545529999
_cell_angle_gamma    60.10169048814379

_space_group_name_H-M_alt    "P 1"
_space_group_IT_number       1

loop_
  _space_group_symop_operation_xyz
  'x, y, z'

loop_
  _atom_site_type_symbol
  _atom_site_label
  _atom_site_symmetry_multiplicity
  _atom_site_fract_x
  _atom_site_fract_y
  _atom_site_fract_z
  _atom_site_occupancy
  Eu  Eu1       1.0  0.7589250204417652  0.2516733696893933  0.6952810297828448  1.0000
  W   W1        1.0  0.5092363947202518  0.0018443048467103455  0.445394814483479  1.0000
  Eu  Eu2       1.0  0.2590735556582511  0.7519634375723917  0.19564209859919182  1.0000
  Mo  Mo1       1.0  0.009121577166369044  0.5018697390704114  0.9451933511235602  1.0000
  O   O1        1.0  0.2648639676348655  0.24621506052900533  0.20075409063419145  1.0000
  O   O2        1.0  0.7533640267681835  0.7573717823640056  0.20115108837404636  1.0000
  O   O3        1.0  0.7530155183969788  0.7572303410054072  0.6901130678511518  1.0000
  O   O4        1.0  0.26468920709224536  0.24566624960664515  0.6899070752051276  1.0000
  O   O5        1.0  0.7537232048796736  0.24636542766443767  0.2005991643708814  1.0000
  O   O6        1.0  0.2645064896579867  0.7567699545804842  0.6903029089221837  1.0000
