data_image0
_chemical_formula_structural       LuFe2LuFe7Lu
_chemical_formula_sum              "Lu3 Fe9"
_cell_length_a       5.043117829058799
_cell_length_b       5.041689486891814
_cell_length_c       8.482876777648926
_cell_angle_alpha    72.72714392390525
_cell_angle_beta     72.73761321134054
_cell_angle_gamma    59.984157322427286

_space_group_name_H-M_alt    "P 1"
_space_group_IT_number       1

loop_
  _space_group_symop_operation_xyz
  'x, y, z'

loop_
  _atom_site_type_symbol
  _atom_site_label
  _atom_site_symmetry_multiplicity
  _atom_site_fract_x
  _atom_site_fract_y
  _atom_site_fract_z
  _atom_site_occupancy
  Lu  Lu1       1.0  0.9766823652855727  0.9938684111027506  0.5797014229970123  1.0000
  Fe  Fe1       1.0  0.3346150220327082  0.3517268288985595  0.506414890500884  1.0000
  Fe  Fe2       1.0  0.915803431709038  0.43470120498900017  0.7597799902533672  1.0000
  Lu  Lu2       1.0  0.6922957899917149  0.7098284363814386  0.4330565331858952  1.0000
  Fe  Fe3       1.0  0.41705107657621976  0.9330289965128307  0.759768187483036  1.0000
  Fe  Fe4       1.0  0.5014007683606152  0.5183788537462708  0.006106957715355126  1.0000
  Fe  Fe5       1.0  0.2514881789451178  0.770699262665304  0.2532639501149566  1.0000
  Fe  Fe6       1.0  0.16723589635764566  0.18503969932898606  0.007101588925875044  1.0000
  Fe  Fe7       1.0  0.4171676034882779  0.4345140457803831  0.7597283727477233  1.0000
  Fe  Fe8       1.0  0.25152411930984697  0.26917228208956073  0.25337371230829386  1.0000
  Fe  Fe9       1.0  0.7533292774788605  0.26884022392684204  0.25324505602532843  1.0000
  Lu  Lu3       1.0  0.834549665171347  0.8516929742775952  0.006443146053694139  1.0000
