data_image0
_chemical_formula_structural       MnOMn2OMnOLiOMnO2
_chemical_formula_sum              "Mn5 O6 Li1"
_cell_length_a       3.1188339512427907
_cell_length_b       3.117221939424391
_cell_length_c       15.31544017791748
_cell_angle_alpha    90.12765191805009
_cell_angle_beta     90.13200274159388
_cell_angle_gamma    120.13923169821032

_space_group_name_H-M_alt    "P 1"
_space_group_IT_number       1

loop_
  _space_group_symop_operation_xyz
  'x, y, z'

loop_
  _atom_site_type_symbol
  _atom_site_label
  _atom_site_symmetry_multiplicity
  _atom_site_fract_x
  _atom_site_fract_y
  _atom_site_fract_z
  _atom_site_occupancy
  Mn  Mn1       1.0  0.14332392648138995  0.5856643306874366  0.6062208413194964  1.0000
  O   O1        1.0  0.8110853451517523  0.9212462314489234  0.19268041842126743  1.0000
  Mn  Mn2       1.0  0.8104115716586555  0.920099018719063  0.9494523405222288  1.0000
  Mn  Mn3       1.0  0.47787886800545715  0.25366252539992046  0.775532186353483  1.0000
  O   O2        1.0  0.1422034942855315  0.5858027916813311  0.35227444774649214  1.0000
  Mn  Mn4       1.0  0.4771631338766382  0.25516658882773013  0.26118907341492603  1.0000
  O   O3        1.0  0.8116300699391676  0.9198383109788311  0.6909228566030523  1.0000
  Li  Li1       1.0  0.1438022567586071  0.5882043847484467  0.10674677048233962  1.0000
  O   O4        1.0  0.1429079494648995  0.5866985333390944  0.8599928614778661  1.0000
  Mn  Mn5       1.0  0.8096831440872525  0.919136821274298  0.436011135753262  1.0000
  O   O5        1.0  0.476120472851179  0.2534429746207147  0.01854843434195221  1.0000
  O   O6        1.0  0.4763140075087117  0.25276678745166237  0.5212046502311819  1.0000
