data_image0
_chemical_formula_structural       Fe4Li2O4MnFeO4
_chemical_formula_sum              "Fe5 Li2 O8 Mn1"
_cell_length_a       5.335811210195333
_cell_length_b       6.775062743374339
_cell_length_c       5.333056449890137
_cell_angle_alpha    75.30846286476306
_cell_angle_beta     69.42635807878528
_cell_angle_gamma    103.80268777301268

_space_group_name_H-M_alt    "P 1"
_space_group_IT_number       1

loop_
  _space_group_symop_operation_xyz
  'x, y, z'

loop_
  _atom_site_type_symbol
  _atom_site_label
  _atom_site_symmetry_multiplicity
  _atom_site_fract_x
  _atom_site_fract_y
  _atom_site_fract_z
  _atom_site_occupancy
  Fe  Fe1       1.0  0.4325167538702268  0.3538560562527993  0.708311915255847  1.0000
  Fe  Fe2       1.0  0.8087690476859762  0.10914575248568652  0.833660007038312  1.0000
  Fe  Fe3       1.0  0.6888735898421293  0.8566004034065036  0.46012753306311205  1.0000
  Fe  Fe4       1.0  0.30826303474284106  0.09838239872948369  0.3333016331708165  1.0000
  Li  Li1       1.0  0.0646136856189216  0.6127408139344523  0.5786653164458818  1.0000
  Li  Li2       1.0  0.18041412548574998  0.8556648499453573  0.9503298391813992  1.0000
  O   O1        1.0  0.04317774556425477  0.10057260023792035  0.09709323297664967  1.0000
  O   O2        1.0  0.18128794356192626  0.35160630921220126  0.47208431415440605  1.0000
  O   O3        1.0  0.4571438741012737  0.8520268207311251  0.2115794706314672  1.0000
  O   O4        1.0  0.7908928987617392  0.6147496109997106  0.31119257161470437  1.0000
  Mn  Mn1       1.0  0.5639951229507421  0.6133901481499933  0.07883907102249933  1.0000
  Fe  Fe5       1.0  0.9415026314490568  0.36713206811251825  0.20537737011244456  1.0000
  O   O5        1.0  0.9360401629013039  0.8586129553152368  0.6794380550283541  1.0000
  O   O6        1.0  0.6691464192319923  0.36679896733822426  0.9670839893844196  1.0000
  O   O7        1.0  0.34036427659081886  0.6185233596369678  0.8446528920545806  1.0000
  O   O8        1.0  0.5656393770456595  0.09775766741380035  0.577849625768243  1.0000
