data_image0
_chemical_formula_structural       NiCoGeCoH
_chemical_formula_sum              "Ni1 Co2 Ge1 H1"
_cell_length_a       3.5701358990963694
_cell_length_b       3.6249877939293444
_cell_length_c       3.6288812160491943
_cell_angle_alpha    89.96520269075236
_cell_angle_beta     90.01112205232809
_cell_angle_gamma    89.97682084290616

_space_group_name_H-M_alt    "P 1"
_space_group_IT_number       1

loop_
  _space_group_symop_operation_xyz
  'x, y, z'

loop_
  _atom_site_type_symbol
  _atom_site_label
  _atom_site_symmetry_multiplicity
  _atom_site_fract_x
  _atom_site_fract_y
  _atom_site_fract_z
  _atom_site_occupancy
  Ni  Ni1       1.0  0.40544530697509934  0.5102724444164601  0.3880858412839606  1.0000
  Co  Co1       1.0  0.9053673748258019  0.010419179926988518  0.3880138994134057  1.0000
  Ge  Ge1       1.0  0.40539595571032644  0.0101794107799268  0.8877956279061278  1.0000
  Co  Co2       1.0  0.9054244162925351  0.5103110680050745  0.8880115741757563  1.0000
  H   H1        1.0  0.9052807100302481  0.5100526201694543  0.3880460551666408  1.0000
