data_image0
_chemical_formula_structural       Co9Ni2
_chemical_formula_sum              "Co9 Ni2"
_cell_length_a       3.5105695399211547
_cell_length_b       6.5922446106190336
_cell_length_c       5.576322555541992
_cell_angle_alpha    104.31422742827358
_cell_angle_beta     89.92726781987173
_cell_angle_gamma    105.26985191751098

_space_group_name_H-M_alt    "P 1"
_space_group_IT_number       1

loop_
  _space_group_symop_operation_xyz
  'x, y, z'

loop_
  _atom_site_type_symbol
  _atom_site_label
  _atom_site_symmetry_multiplicity
  _atom_site_fract_x
  _atom_site_fract_y
  _atom_site_fract_z
  _atom_site_occupancy
  Co  Co1       1.0  0.8945150367089199  0.8841531270152186  0.8126392960156861  1.0000
  Co  Co2       1.0  0.34869059976754996  0.7930689457528745  0.07863781577387297  1.0000
  Co  Co3       1.0  0.16761983873998004  0.43056008215897024  0.1728731836080436  1.0000
  Co  Co4       1.0  0.25755077735298076  0.6105505234243159  0.6291422851347517  1.0000
  Co  Co5       1.0  0.6220780028709038  0.339340269517546  0.44607690033374686  1.0000
  Co  Co6       1.0  0.5316832075223656  0.15844008364801673  0.9928082227140231  1.0000
  Co  Co7       1.0  0.712429284294019  0.5197608477876055  0.8988364347311539  1.0000
  Co  Co8       1.0  0.9860140097577612  0.06728088887343184  0.2623593802847679  1.0000
  Co  Co9       1.0  0.07614384469570167  0.24762703433694638  0.7187194817744138  1.0000
  Ni  Ni1       1.0  0.803215981345651  0.7025485044709552  0.35475975334513227  1.0000
  Ni  Ni2       1.0  0.4400970636537747  0.9749432206949651  0.536504925180416  1.0000
