data_image0
_chemical_formula_structural       OGd2VO5V
_chemical_formula_sum              "O6 Gd2 V2"
_cell_length_a       3.343835818795211
_cell_length_b       5.998282486420142
_cell_length_c       7.145702362060547
_cell_angle_alpha    114.77843007282047
_cell_angle_beta     103.47720193948948
_cell_angle_gamma    90.0386687065305

_space_group_name_H-M_alt    "P 1"
_space_group_IT_number       1

loop_
  _space_group_symop_operation_xyz
  'x, y, z'

loop_
  _atom_site_type_symbol
  _atom_site_label
  _atom_site_symmetry_multiplicity
  _atom_site_fract_x
  _atom_site_fract_y
  _atom_site_fract_z
  _atom_site_occupancy
  O   O1        1.0  0.8863717302043626  0.30744606225582544  0.314154207479991  1.0000
  Gd  Gd1       1.0  0.7470989232615992  0.9105170965657323  0.035562578787688925  1.0000
  Gd  Gd2       1.0  0.34005132320389236  0.5032196648880858  0.22146223577372454  1.0000
  V   V1        1.0  0.04421434151543648  0.9759480952630812  0.6285800937614283  1.0000
  O   O2        1.0  0.2014072387026308  0.10653572585787555  0.9435181622720507  1.0000
  O   O3        1.0  0.5443971748267045  0.2070115651050439  0.6290917984572715  1.0000
  O   O4        1.0  0.8864856364915977  0.7926880717235787  0.3140456971606488  1.0000
  O   O5        1.0  0.20139223331268077  0.6208156939896148  0.9433947803458864  1.0000
  O   O6        1.0  0.5444544552899441  0.7074958077824359  0.628611445231621  1.0000
  V   V2        1.0  0.043961416268415245  0.43688458152157217  0.6284115901611468  1.0000
