data_image0
_chemical_formula_structural       FGdF2GdFOF
_chemical_formula_sum              "F5 Gd2 O1"
_cell_length_a       5.690506526114405
_cell_length_b       5.73145947399845
_cell_length_c       6.101416110992432
_cell_angle_alpha    101.64912287760411
_cell_angle_beta     99.7322711716237
_cell_angle_gamma    122.48310614682957

_space_group_name_H-M_alt    "P 1"
_space_group_IT_number       1

loop_
  _space_group_symop_operation_xyz
  'x, y, z'

loop_
  _atom_site_type_symbol
  _atom_site_label
  _atom_site_symmetry_multiplicity
  _atom_site_fract_x
  _atom_site_fract_y
  _atom_site_fract_z
  _atom_site_occupancy
  F   F1        1.0  0.8557612888107173  0.383482962861829  0.12686212426019552  1.0000
  Gd  Gd1       1.0  0.12090899805566083  0.6039845933054852  0.9041255715890597  1.0000
  F   F2        1.0  0.30952104978791706  0.8470873827674881  0.660541295915126  1.0000
  F   F3        1.0  0.5165013670237574  0.6734490991755767  0.1451693480457134  1.0000
  Gd  Gd2       1.0  0.9326198091659008  0.788766383094231  0.388087630197607  1.0000
  F   F4        1.0  0.7467678782237055  0.541733502435626  0.6326398250347766  1.0000
  O   O1        1.0  0.16823691045412054  0.9470263122178156  0.16370393264239905  1.0000
  F   F5        1.0  0.0266181571620577  0.19688463218761484  0.642140329532544  1.0000
