data_image0
_chemical_formula_structural       Eu5Cu3EuCu
_chemical_formula_sum              "Eu6 Cu4"
_cell_length_a       6.013688004780386
_cell_length_b       6.019580909827234
_cell_length_c       8.17555046081543
_cell_angle_alpha    76.59366629874485
_cell_angle_beta     76.469056251074
_cell_angle_gamma    90.47349165971009

_space_group_name_H-M_alt    "P 1"
_space_group_IT_number       1

loop_
  _space_group_symop_operation_xyz
  'x, y, z'

loop_
  _atom_site_type_symbol
  _atom_site_label
  _atom_site_symmetry_multiplicity
  _atom_site_fract_x
  _atom_site_fract_y
  _atom_site_fract_z
  _atom_site_occupancy
  Eu  Eu1       1.0  0.31420287425483395  0.5259971623693803  0.053449522881150596  1.0000
  Eu  Eu2       1.0  0.21181884350247907  0.6288619041458476  0.553207040093128  1.0000
  Eu  Eu3       1.0  0.7120958568655849  0.9227342008053547  0.6241759062505879  1.0000
  Eu  Eu4       1.0  0.7839475878237359  0.4526603822512061  0.33836567412755675  1.0000
  Eu  Eu5       1.0  0.6092029818051662  0.02520407204088209  0.12376213804518842  1.0000
  Cu  Cu1       1.0  0.06925783349956155  0.9790615431546825  0.24923512305370896  1.0000
  Cu  Cu2       1.0  0.2571094334663516  0.16828203231618794  0.428492039039393  1.0000
  Cu  Cu3       1.0  0.8543282741125703  0.5731545684264583  0.9277962447777537  1.0000
  Eu  Eu6       1.0  0.1397769757568957  0.09852648562162207  0.8388745782157251  1.0000
  Cu  Cu4       1.0  0.6666632885358603  0.383278190954422  0.7488692409944306  1.0000
