data_image0
_chemical_formula_structural       Fe2Co5Fe2
_chemical_formula_sum              "Fe4 Co5"
_cell_length_a       2.8111715974423217
_cell_length_b       6.1890185264375575
_cell_length_c       6.225993633270264
_cell_angle_alpha    87.23079775763532
_cell_angle_beta     76.98188728972788
_cell_angle_gamma    76.91958306124756

_space_group_name_H-M_alt    "P 1"
_space_group_IT_number       1

loop_
  _space_group_symop_operation_xyz
  'x, y, z'

loop_
  _atom_site_type_symbol
  _atom_site_label
  _atom_site_symmetry_multiplicity
  _atom_site_fract_x
  _atom_site_fract_y
  _atom_site_fract_z
  _atom_site_occupancy
  Fe  Fe1       1.0  0.8977060312612387  0.08886524273514002  0.7979334000283174  1.0000
  Fe  Fe2       1.0  0.5641933674783706  0.42341262157560056  0.13074794340854068  1.0000
  Co  Co1       1.0  0.8969263438203819  0.7554566258058533  0.13312254873204618  1.0000
  Co  Co2       1.0  0.23019479184211653  0.42169356315169604  0.7997730966229385  1.0000
  Co  Co3       1.0  0.5618484005701451  0.7606440777147346  0.7992995380654087  1.0000
  Co  Co4       1.0  0.5637775059325165  0.08964291206163995  0.46602121042847255  1.0000
  Co  Co5       1.0  0.23213754560604077  0.7504670021608331  0.4675098068771227  1.0000
  Fe  Fe3       1.0  0.22982358820715315  0.08700757397802585  0.13609196223396683  1.0000
  Fe  Fe4       1.0  0.8967341174465322  0.4217571321463018  0.46751052086104655  1.0000
