data_image0
_chemical_formula_structural       CFe3CFe4CFeC
_chemical_formula_sum              "C4 Fe8"
_cell_length_a       5.3177137830206895
_cell_length_b       5.316921519485493
_cell_length_c       5.324567794799805
_cell_angle_alpha    106.69436383034464
_cell_angle_beta     106.75015359691662
_cell_angle_gamma    115.01203549733326

_space_group_name_H-M_alt    "P 1"
_space_group_IT_number       1

loop_
  _space_group_symop_operation_xyz
  'x, y, z'

loop_
  _atom_site_type_symbol
  _atom_site_label
  _atom_site_symmetry_multiplicity
  _atom_site_fract_x
  _atom_site_fract_y
  _atom_site_fract_z
  _atom_site_occupancy
  C   C1        1.0  0.04381108395442452  0.42959353357499713  0.5914937865592063  1.0000
  Fe  Fe1       1.0  0.9959217307946602  0.1791163679277189  0.7939363724366025  1.0000
  Fe  Fe2       1.0  0.4958729436334761  0.6799150695980148  0.7938600764358338  1.0000
  Fe  Fe3       1.0  0.09075183368565909  0.6796281326263234  0.3881725365702257  1.0000
  C   C2        1.0  0.29372575888808694  0.17951445311541225  0.09130510004117863  1.0000
  Fe  Fe4       1.0  0.5438073882060784  0.2267964038720487  0.8887853030558809  1.0000
  Fe  Fe5       1.0  0.5910212983057509  0.17963397468999745  0.38848704140190654  1.0000
  Fe  Fe6       1.0  0.5437033177239574  0.6320133208621899  0.29344344106790526  1.0000
  Fe  Fe7       1.0  0.04392217419829875  0.7270138254833174  0.8888022304712491  1.0000
  C   C3        1.0  0.7931131716950004  0.679710209426198  0.09038616647481841  1.0000
  Fe  Fe8       1.0  0.04347528514797782  0.13182666981401206  0.2935545152242511  1.0000
  C   C4        1.0  0.543932913923076  0.929452239845605  0.591348349887635  1.0000
