data_image0
_chemical_formula_structural       CoS2Co
_chemical_formula_sum              "Co2 S2"
_cell_length_a       3.13044557896484
_cell_length_b       3.7173825992060583
_cell_length_c       4.960057735443115
_cell_angle_alpha    89.96624771182007
_cell_angle_beta     90.03474084374578
_cell_angle_gamma    114.84726694207002

_space_group_name_H-M_alt    "P 1"
_space_group_IT_number       1

loop_
  _space_group_symop_operation_xyz
  'x, y, z'

loop_
  _atom_site_type_symbol
  _atom_site_label
  _atom_site_symmetry_multiplicity
  _atom_site_fract_x
  _atom_site_fract_y
  _atom_site_fract_z
  _atom_site_occupancy
  Co  Co1       1.0  0.5513750320067756  0.29905435430825683  0.7503506542801366  1.0000
  S   S1        1.0  0.848740519305188  0.892815768884534  0.5602216712217926  1.0000
  S   S2        1.0  0.1253235038015615  0.44789633103814486  0.05936641693991439  1.0000
  Co  Co2       1.0  0.4220290475801101  0.03971910935100687  0.25007343234931784  1.0000
