data_image0
_chemical_formula_structural       NaRhNaONaONaO3NaO
_chemical_formula_sum              "Na5 Rh1 O6"
_cell_length_a       5.6521807761121545
_cell_length_b       5.720301293818782
_cell_length_c       5.702937602996826
_cell_angle_alpha    59.878848364684984
_cell_angle_beta     79.83214616479225
_cell_angle_gamma    69.40732485091674

_space_group_name_H-M_alt    "P 1"
_space_group_IT_number       1

loop_
  _space_group_symop_operation_xyz
  'x, y, z'

loop_
  _atom_site_type_symbol
  _atom_site_label
  _atom_site_symmetry_multiplicity
  _atom_site_fract_x
  _atom_site_fract_y
  _atom_site_fract_z
  _atom_site_occupancy
  Na  Na1       1.0  0.7496318227653878  0.5767892004481285  0.7725763916728998  1.0000
  Rh  Rh1       1.0  0.7494092587872033  0.9088549010867993  0.10778310983877597  1.0000
  Na  Na2       1.0  0.2489752762276608  0.08214751643194493  0.762552261010732  1.0000
  O   O1        1.0  0.9686840186581739  0.8358806957346114  0.8246024852570348  1.0000
  Na  Na3       1.0  0.2495125822788976  0.7362202999692554  0.45321416939862613  1.0000
  O   O2        1.0  0.9691462509168417  0.5521413094436907  0.39162766828895995  1.0000
  Na  Na4       1.0  0.7495638723294028  0.24106071861219944  0.4433266520344986  1.0000
  O   O3        1.0  0.5404340624653025  0.7024854413808718  0.10779415060761781  1.0000
  O   O4        1.0  0.5300266744426759  0.26533123774965117  0.82424163850061  1.0000
  O   O5        1.0  0.529942511847164  0.982037365760818  0.391495615966632  1.0000
  Na  Na5       1.0  0.2494689215164465  0.4089236865851974  0.10790973887181679  1.0000
  O   O6        1.0  0.9581989049481269  0.11503469142798098  0.10810904914719327  1.0000
