data_image0
_chemical_formula_structural       Fe2CoFe2Co3
_chemical_formula_sum              "Fe4 Co4"
_cell_length_a       4.481147657791596
_cell_length_b       4.527029004009796
_cell_length_c       4.571478843688965
_cell_angle_alpha    89.97464201052652
_cell_angle_beta     89.96480654015349
_cell_angle_gamma    90.0772929153204

_space_group_name_H-M_alt    "P 1"
_space_group_IT_number       1

loop_
  _space_group_symop_operation_xyz
  'x, y, z'

loop_
  _atom_site_type_symbol
  _atom_site_label
  _atom_site_symmetry_multiplicity
  _atom_site_fract_x
  _atom_site_fract_y
  _atom_site_fract_z
  _atom_site_occupancy
  Fe  Fe1       1.0  0.28589114536188687  0.24587260237221642  0.7319414620038738  1.0000
  Fe  Fe2       1.0  0.5356608035186701  0.9942173959777777  0.23209367632123337  1.0000
  Co  Co1       1.0  0.7866980438586383  0.49539306665015975  0.9832507957232058  1.0000
  Fe  Fe3       1.0  0.03663464656028792  0.99452966511147  0.23184393388513502  1.0000
  Fe  Fe4       1.0  0.7869144678491519  0.9922097925020309  0.7319304343684304  1.0000
  Co  Co2       1.0  0.28588888071786445  0.49556904979551397  0.23188260199146113  1.0000
  Co  Co3       1.0  0.2860929676227223  0.74519699747817  0.7321541898762735  1.0000
  Co  Co4       1.0  0.7862561950124589  0.49503788411880706  0.4811702369688618  1.0000
