data_image0
_chemical_formula_structural       MnGeMn7
_chemical_formula_sum              "Mn8 Ge1"
_cell_length_a       3.6334855846031293
_cell_length_b       5.580603692343236
_cell_length_c       5.571877956390381
_cell_angle_alpha    83.771744487039
_cell_angle_beta     70.95517276019719
_cell_angle_gamma    71.1197683639318

_space_group_name_H-M_alt    "P 1"
_space_group_IT_number       1

loop_
  _space_group_symop_operation_xyz
  'x, y, z'

loop_
  _atom_site_type_symbol
  _atom_site_label
  _atom_site_symmetry_multiplicity
  _atom_site_fract_x
  _atom_site_fract_y
  _atom_site_fract_z
  _atom_site_occupancy
  Mn  Mn1       1.0  0.627818882911802  0.6467763191570101  0.9611071347830795  1.0000
  Ge  Ge1       1.0  0.30236309752608165  0.2979376013103886  0.9608909491772368  1.0000
  Mn  Mn2       1.0  0.6442115297660498  0.9553650623086886  0.6177874212295774  1.0000
  Mn  Mn3       1.0  0.9762095822199589  0.9497592443311826  0.9596767421013074  1.0000
  Mn  Mn4       1.0  0.6272889368710424  0.29799330244761635  0.3099837896027202  1.0000
  Mn  Mn5       1.0  0.9764215950317955  0.29808041454166645  0.6123784770995538  1.0000
  Mn  Mn6       1.0  0.30218538730331895  0.9535272713498761  0.3052071920507867  1.0000
  Mn  Mn7       1.0  0.9599933633559592  0.6406346551788321  0.30370590021561483  1.0000
  Mn  Mn8       1.0  0.3011620947198043  0.6427850122397033  0.6169441928712026  1.0000
