data_image0
_chemical_formula_structural       CoErCoBeErCo6BeCo7
_chemical_formula_sum              "Co15 Er2 Be2"
_cell_length_a       6.209139401715699
_cell_length_b       6.2089412395844965
_cell_length_c       6.207491397857666
_cell_angle_alpha    82.79963745643076
_cell_angle_beta     82.7284672266442
_cell_angle_gamma    82.73410211765159

_space_group_name_H-M_alt    "P 1"
_space_group_IT_number       1

loop_
  _space_group_symop_operation_xyz
  'x, y, z'

loop_
  _atom_site_type_symbol
  _atom_site_label
  _atom_site_symmetry_multiplicity
  _atom_site_fract_x
  _atom_site_fract_y
  _atom_site_fract_z
  _atom_site_occupancy
  Co  Co1       1.0  0.028085620724765697  0.6956628558646928  0.6296435588333043  1.0000
  Er  Er1       1.0  0.9670236706190466  0.35198289216978595  0.002866887990777079  1.0000
  Co  Co2       1.0  0.6569756858253356  0.5483418104133985  0.6922071579296426  1.0000
  Be  Be1       1.0  0.21414272430383277  0.5988482240882026  0.24960623653167358  1.0000
  Er  Er2       1.0  0.6546985514547736  0.039789002360166865  0.6901515125233146  1.0000
  Co  Co3       1.0  0.5942371495904949  0.6960866449062131  0.06315623163733942  1.0000
  Co  Co4       1.0  0.6568332917606114  0.042102198575045414  0.19905042683827692  1.0000
  Co  Co5       1.0  0.9652048354438529  0.3497486118561314  0.4940027002989887  1.0000
  Co  Co6       1.0  0.02799505436066882  0.9790837163031131  0.3466900583897436  1.0000
  Co  Co7       1.0  0.5943179733493322  0.4128176564075447  0.346537053831387  1.0000
  Co  Co8       1.0  0.31113514314578167  0.6958754651442055  0.846361577577956  1.0000
  Be  Be2       1.0  0.4080736043464657  0.7929156421083298  0.44333326789039607  1.0000
  Co  Co9       1.0  0.3108600083306027  0.19596007469099155  0.3464153404736913  1.0000
  Co  Co10      1.0  0.965062439656003  0.8433340791915284  0.00042103569981569416  1.0000
  Co  Co11      1.0  0.458572388463834  0.35004279022135776  0.00034689856209849036  1.0000
  Co  Co12      1.0  0.810820459795486  0.6958829166063097  0.346615075757367  1.0000
  Co  Co13      1.0  0.3110011517471483  0.9791166785261814  0.06382976482147214  1.0000
  Co  Co14      1.0  0.3111487035774454  0.412793189602793  0.6298311951400417  1.0000
  Co  Co15      1.0  0.16378711194515377  0.04208539398412148  0.692444025671845  1.0000
