data_image0
_chemical_formula_structural       Eu3IrEu2IrNEuN
_chemical_formula_sum              "Eu6 Ir2 N2"
_cell_length_a       4.970069349376145
_cell_length_b       6.234764683611928
_cell_length_c       8.832892417907715
_cell_angle_alpha    75.19216655466583
_cell_angle_beta     90.11467455679546
_cell_angle_gamma    66.5481855639336

_space_group_name_H-M_alt    "P 1"
_space_group_IT_number       1

loop_
  _space_group_symop_operation_xyz
  'x, y, z'

loop_
  _atom_site_type_symbol
  _atom_site_label
  _atom_site_symmetry_multiplicity
  _atom_site_fract_x
  _atom_site_fract_y
  _atom_site_fract_z
  _atom_site_occupancy
  Eu  Eu1       1.0  0.7364770771710992  0.631231606571673  0.41500627970106485  1.0000
  Eu  Eu2       1.0  0.25625336268842186  0.5908602471799153  0.11934929337951505  1.0000
  Eu  Eu3       1.0  0.43981024559827725  0.22382904661750427  0.5445499422495943  1.0000
  Ir  Ir1       1.0  0.8149855738642683  0.47504496502915994  0.9635598060328785  1.0000
  Eu  Eu4       1.0  0.004319056144806075  0.09785253513622948  0.28542080557118293  1.0000
  Eu  Eu5       1.0  0.1863526105122247  0.7335801722860744  0.7007037403085731  1.0000
  Ir  Ir2       1.0  0.9106764200606019  0.2849596443701  0.741923451323165  1.0000
  N   N1        1.0  0.962514996605102  0.17991268716358721  0.5371704098829598  1.0000
  Eu  Eu6       1.0  0.5141620034395276  0.07530926147607316  0.94819015246705  1.0000
  N   N2        1.0  0.2249369170769423  0.65672749191966  0.3929170675067846  1.0000
