data_image0
_chemical_formula_structural       Fe2Co3FeCo3
_chemical_formula_sum              "Fe3 Co6"
_cell_length_a       2.8166341902774215
_cell_length_b       6.202093609095509
_cell_length_c       6.167604446411133
_cell_angle_alpha    87.13292147428531
_cell_angle_beta     76.83460081309016
_cell_angle_gamma    76.91564744841395

_space_group_name_H-M_alt    "P 1"
_space_group_IT_number       1

loop_
  _space_group_symop_operation_xyz
  'x, y, z'

loop_
  _atom_site_type_symbol
  _atom_site_label
  _atom_site_symmetry_multiplicity
  _atom_site_fract_x
  _atom_site_fract_y
  _atom_site_fract_z
  _atom_site_occupancy
  Fe  Fe1       1.0  0.5741002551118769  0.27515163960496275  0.3541040716690841  1.0000
  Fe  Fe2       1.0  0.24305798056262376  0.9376634963031968  0.3537715976979579  1.0000
  Co  Co1       1.0  0.5767099263608525  0.9382852309645903  0.6860107184549912  1.0000
  Co  Co2       1.0  0.24060660781898494  0.2725946603384178  0.024101672661354042  1.0000
  Co  Co3       1.0  0.9085933568305895  0.6065919393939484  0.35358211440257403  1.0000
  Fe  Fe3       1.0  0.24258255876838172  0.6065420508461412  0.6861954334328622  1.0000
  Co  Co4       1.0  0.9080262790233641  0.2747866212335726  0.6864324208478932  1.0000
  Co  Co5       1.0  0.907040657265097  0.9404761192013412  0.0235165940174375  1.0000
  Co  Co6       1.0  0.5781815038767001  0.6065767996813515  0.014812840851743206  1.0000
