data_image0
_chemical_formula_structural       Fe11SiFeSiFe2
_chemical_formula_sum              "Fe14 Si2"
_cell_length_a       5.670839807512692
_cell_length_b       5.66990587079713
_cell_length_c       5.663231372833252
_cell_angle_alpha    89.98447065388977
_cell_angle_beta     89.99507110804157
_cell_angle_gamma    89.99842473076096

_space_group_name_H-M_alt    "P 1"
_space_group_IT_number       1

loop_
  _space_group_symop_operation_xyz
  'x, y, z'

loop_
  _atom_site_type_symbol
  _atom_site_label
  _atom_site_symmetry_multiplicity
  _atom_site_fract_x
  _atom_site_fract_y
  _atom_site_fract_z
  _atom_site_occupancy
  Fe  Fe1       1.0  0.12991872384592415  0.6444246763259128  0.7764800190241784  1.0000
  Fe  Fe2       1.0  0.8813921214758755  0.394211082842492  0.526251971799141  1.0000
  Fe  Fe3       1.0  0.8817055218605934  0.8942083120382499  0.026422280432901745  1.0000
  Fe  Fe4       1.0  0.6300811173618286  0.6441622380969326  0.7763079999128113  1.0000
  Fe  Fe5       1.0  0.8805291660909556  0.894433677339991  0.5262893441584052  1.0000
  Fe  Fe6       1.0  0.3789517581062861  0.8945057385036986  0.026523377207205406  1.0000
  Fe  Fe7       1.0  0.3783301413867217  0.39454352929096925  0.5262174016003552  1.0000
  Fe  Fe8       1.0  0.6302249438531271  0.14377747511638056  0.7764320371748697  1.0000
  Fe  Fe9       1.0  0.8816989651570604  0.3938171574169598  0.02610392948048211  1.0000
  Fe  Fe10      1.0  0.37895637807048893  0.39455699865088  0.026160167529881363  1.0000
  Fe  Fe11      1.0  0.1298883114274812  0.14417436708157108  0.2761779134981847  1.0000
  Si  Si1       1.0  0.12940829986295152  0.6446983810562824  0.2763435836310253  1.0000
  Fe  Fe12      1.0  0.3773532516484702  0.8945315484569439  0.5263475771726558  1.0000
  Si  Si2       1.0  0.13012438946869134  0.1442337631315534  0.776635051299552  1.0000
  Fe  Fe13      1.0  0.6297401791558334  0.6445214151488938  0.2760087256788734  1.0000
  Fe  Fe14      1.0  0.629774808827515  0.14444270664330788  0.2762426141718941  1.0000
