data_image0
_chemical_formula_structural       Fe5NiFe2Ni2Co2NiFeNi2
_chemical_formula_sum              "Fe8 Ni6 Co2"
_cell_length_a       5.094640094822458
_cell_length_b       5.091939058966455
_cell_length_c       7.094148635864258
_cell_angle_alpha    89.66901154033346
_cell_angle_beta     90.09811134109701
_cell_angle_gamma    89.52403399722944

_space_group_name_H-M_alt    "P 1"
_space_group_IT_number       1

loop_
  _space_group_symop_operation_xyz
  'x, y, z'

loop_
  _atom_site_type_symbol
  _atom_site_label
  _atom_site_symmetry_multiplicity
  _atom_site_fract_x
  _atom_site_fract_y
  _atom_site_fract_z
  _atom_site_occupancy
  Fe  Fe1       1.0  0.6323135492488501  0.7670192117373789  0.5986921780559687  1.0000
  Fe  Fe2       1.0  0.88268226287929  0.5154514308915911  0.34892675298801507  1.0000
  Fe  Fe3       1.0  0.37792521718242233  0.5162829151326063  0.3490879238302992  1.0000
  Fe  Fe4       1.0  0.6314678781790435  0.7719534632950782  0.09880269993936414  1.0000
  Fe  Fe5       1.0  0.6325415970319221  0.2623562223428293  0.5977164506469255  1.0000
  Ni  Ni1       1.0  0.8854690787402241  0.014857353569795128  0.3483207224784192  1.0000
  Fe  Fe6       1.0  0.8871994612153838  0.5140652061482194  0.8484845752755359  1.0000
  Fe  Fe7       1.0  0.13218133247804226  0.2594619387568874  0.10121165213293282  1.0000
  Ni  Ni2       1.0  0.13135825011195904  0.7634546167110895  0.09843193049917377  1.0000
  Ni  Ni3       1.0  0.1316592540128339  0.7676566833161553  0.5988458989316152  1.0000
  Co  Co1       1.0  0.38236466026942184  0.015053681775170727  0.3493434485049785  1.0000
  Co  Co2       1.0  0.8794806002097617  0.015086354697669111  0.8487060066492609  1.0000
  Ni  Ni4       1.0  0.131830989884626  0.2635034630017834  0.5977448222754821  1.0000
  Fe  Fe8       1.0  0.37655979335915357  0.01656123783653387  0.8475629693317466  1.0000
  Ni  Ni5       1.0  0.6317614910672746  0.2678007477259023  0.0993434338783608  1.0000
  Ni  Ni6       1.0  0.38207879653569676  0.515222907013066  0.8494960063012984  1.0000
