data_image0
_chemical_formula_structural       PrNPr3N5Pr
_chemical_formula_sum              "Pr5 N6"
_cell_length_a       3.840488246887542
_cell_length_b       3.842454403462098
_cell_length_c       13.168740272521973
_cell_angle_alpha    97.75526622158748
_cell_angle_beta     97.74597624816735
_cell_angle_gamma    95.05277175067015

_space_group_name_H-M_alt    "P 1"
_space_group_IT_number       1

loop_
  _space_group_symop_operation_xyz
  'x, y, z'

loop_
  _atom_site_type_symbol
  _atom_site_label
  _atom_site_symmetry_multiplicity
  _atom_site_fract_x
  _atom_site_fract_y
  _atom_site_fract_z
  _atom_site_occupancy
  Pr  Pr1       1.0  0.09276088343563632  0.33516469489910455  0.6476339099371436  1.0000
  N   N1        1.0  0.5938767790270982  0.8373193746221957  0.6501704453935226  1.0000
  Pr  Pr2       1.0  0.4899180535648145  0.7323186989126361  0.4406903089756304  1.0000
  Pr  Pr3       1.0  0.6889092327726318  0.9323899141493449  0.8411393167458185  1.0000
  Pr  Pr4       1.0  0.8853508244446212  0.12979733939539254  0.2326455114678892  1.0000
  N   N2        1.0  0.188451155307216  0.43240830427146104  0.8405646681907418  1.0000
  N   N3        1.0  0.7884822495079499  0.03276909114048039  0.040800262213211924  1.0000
  N   N4        1.0  0.3848581324343436  0.6283537159083219  0.23111309096899676  1.0000
  N   N5        1.0  0.0997276220682378  0.12131243951023168  0.44126343725653283  1.0000
  N   N6        1.0  0.8801365488363447  0.34401410733967774  0.44101303800701747  1.0000
  Pr  Pr5       1.0  0.287708402123043  0.532269835387355  0.03934106582632597  1.0000
