data_image0
_chemical_formula_structural       GdInGdGa
_chemical_formula_sum              "Gd2 In1 Ga1"
_cell_length_a       5.305009549567123
_cell_length_b       5.302200951504704
_cell_length_c       5.305107593536377
_cell_angle_alpha    60.00767896371518
_cell_angle_beta     60.03413230552645
_cell_angle_gamma    60.01569760757789

_space_group_name_H-M_alt    "P 1"
_space_group_IT_number       1

loop_
  _space_group_symop_operation_xyz
  'x, y, z'

loop_
  _atom_site_type_symbol
  _atom_site_label
  _atom_site_symmetry_multiplicity
  _atom_site_fract_x
  _atom_site_fract_y
  _atom_site_fract_z
  _atom_site_occupancy
  Gd  Gd1       1.0  0.26471978399058665  0.6278600695423235  0.5234457844330243  1.0000
  In  In1       1.0  0.5146672124425988  0.8779829729855823  0.7731116424548773  1.0000
  Gd  Gd2       1.0  0.7647419572885128  0.12793925411602963  0.022948513673924996  1.0000
  Ga  Ga1       1.0  0.014648329790069203  0.3776920743971982  0.2731426357108009  1.0000
