data_image0
_chemical_formula_structural       Gd4NGdN2O2NGd
_chemical_formula_sum              "Gd6 N4 O2"
_cell_length_a       4.9491310207672115
_cell_length_b       6.080739216146939
_cell_length_c       7.033002853393555
_cell_angle_alpha    106.8311650917695
_cell_angle_beta     90.00341759890028
_cell_angle_gamma    113.9805908731374

_space_group_name_H-M_alt    "P 1"
_space_group_IT_number       1

loop_
  _space_group_symop_operation_xyz
  'x, y, z'

loop_
  _atom_site_type_symbol
  _atom_site_label
  _atom_site_symmetry_multiplicity
  _atom_site_fract_x
  _atom_site_fract_y
  _atom_site_fract_z
  _atom_site_occupancy
  Gd  Gd1       1.0  0.12618710046132503  0.7790876035439716  0.7481526139114293  1.0000
  Gd  Gd2       1.0  0.1273161917179369  0.7807205912187973  0.24008074460004405  1.0000
  Gd  Gd3       1.0  0.46183961571038196  0.4501532012457357  0.9199283118090347  1.0000
  Gd  Gd4       1.0  0.7993137234528649  0.12433172801912362  0.5749295357926266  1.0000
  N   N1        1.0  0.6284832348967472  0.7831231352117533  0.24624408787573007  1.0000
  Gd  Gd5       1.0  0.4633565838741525  0.4531129891528025  0.40328723119863524  1.0000
  N   N2        1.0  0.9617038956118612  0.44993227694034765  0.41525322206563026  1.0000
  N   N3        1.0  0.29714843554881626  0.12058881691801543  0.07688707176511382  1.0000
  O   O1        1.0  0.6292847394240083  0.7847208972115663  0.7438439123102298  1.0000
  O   O2        1.0  0.2960939711700578  0.11872024117361542  0.579186022012171  1.0000
  N   N4        1.0  0.9640004636852485  0.45373490392959437  0.9076393250079065  1.0000
  Gd  Gd6       1.0  0.7984626886182222  0.12304486362919324  0.08320902230232004  1.0000
