data_image0
_chemical_formula_structural       Mn2PtMn3PtMnPt4
_chemical_formula_sum              "Mn6 Pt6"
_cell_length_a       3.8616142844575885
_cell_length_b       5.628435631052223
_cell_length_c       8.338006973266602
_cell_angle_alpha    90.05295013187475
_cell_angle_beta     90.00985846786273
_cell_angle_gamma    90.04189888417515

_space_group_name_H-M_alt    "P 1"
_space_group_IT_number       1

loop_
  _space_group_symop_operation_xyz
  'x, y, z'

loop_
  _atom_site_type_symbol
  _atom_site_label
  _atom_site_symmetry_multiplicity
  _atom_site_fract_x
  _atom_site_fract_y
  _atom_site_fract_z
  _atom_site_occupancy
  Mn  Mn1       1.0  0.3752103157134694  0.9834515444884978  0.9659227132325634  1.0000
  Mn  Mn2       1.0  0.8752211926835927  0.730039059366303  0.4518568516780284  1.0000
  Pt  Pt1       1.0  0.3751416516135025  0.48776456668976903  0.6202853923264526  1.0000
  Mn  Mn3       1.0  0.8752381790931566  0.2421516023166309  0.4657990041463229  1.0000
  Mn  Mn4       1.0  0.8751416815038601  0.23412685008878475  0.13628448538824925  1.0000
  Mn  Mn5       1.0  0.3750860104409533  0.4957355863656468  0.951611816431846  1.0000
  Pt  Pt2       1.0  0.8749741328142295  0.24073427855859553  0.809373796236796  1.0000
  Mn  Mn6       1.0  0.3749879611336344  0.9915676116732254  0.6364955311147178  1.0000
  Pt  Pt3       1.0  0.8752378827777996  0.7376057497169933  0.12022924458640513  1.0000
  Pt  Pt4       1.0  0.37519329867578904  0.47652313157503745  0.2868120374362342  1.0000
  Pt  Pt5       1.0  0.8749465933878199  0.7491663092501654  0.7870126961965537  1.0000
  Pt  Pt6       1.0  0.37559962151584597  0.9849767082328712  0.3092907368284392  1.0000
