data_image0
_chemical_formula_structural       Fe2Co2FeCoFeCoFeCoFe3Co2FeCoFe
_chemical_formula_sum              "Fe10 Co8"
_cell_length_a       4.7036358797702
_cell_length_b       6.951920625977011
_cell_length_c       7.374710559844971
_cell_angle_alpha    118.182051691163
_cell_angle_beta     87.07908569934769
_cell_angle_gamma    103.95600643513322

_space_group_name_H-M_alt    "P 1"
_space_group_IT_number       1

loop_
  _space_group_symop_operation_xyz
  'x, y, z'

loop_
  _atom_site_type_symbol
  _atom_site_label
  _atom_site_symmetry_multiplicity
  _atom_site_fract_x
  _atom_site_fract_y
  _atom_site_fract_z
  _atom_site_occupancy
  Fe  Fe1       1.0  0.6905872229348874  0.21923488431616536  0.3075591325290533  1.0000
  Fe  Fe2       1.0  0.02429402693379621  0.3312035210026192  0.0853096916018614  1.0000
  Co  Co1       1.0  0.02415142782934803  0.66295355636247  0.41934442596986693  1.0000
  Co  Co2       1.0  0.5265678757661465  0.16500802285938568  0.9190062872315634  1.0000
  Fe  Fe3       1.0  0.6900617486497778  0.8874390128670179  0.9738605615202282  1.0000
  Co  Co3       1.0  0.5309467322219491  0.83415800297829  0.5824038975711318  1.0000
  Fe  Fe4       1.0  0.3609483241818569  0.10739480724851204  0.5282062884520503  1.0000
  Co  Co4       1.0  0.19217492669842123  0.05783555327893737  0.14099700779062918  1.0000
  Fe  Fe5       1.0  0.8622418054218938  0.6121763580836682  0.03007102195826053  1.0000
  Co  Co5       1.0  0.8639219999635294  0.9436442846880322  0.360784858377735  1.0000
  Fe  Fe6       1.0  0.6929918528336354  0.5538874269195176  0.6402046685645058  1.0000
  Fe  Fe7       1.0  0.5274678473541652  0.5014665127910344  0.252226830209844  1.0000
  Fe  Fe8       1.0  0.19245414534528102  0.3887529678767798  0.47466716142284454  1.0000
  Co  Co6       1.0  0.19184797950763494  0.7208351499654315  0.80728429570458  1.0000
  Co  Co7       1.0  0.3582819707494758  0.7752323156601756  0.19473190582238856  1.0000
  Fe  Fe9       1.0  0.35857480660448077  0.4428738646845024  0.8626808521131366  1.0000
  Co  Co8       1.0  0.861278951231326  0.27757057484235487  0.6966985460064515  1.0000
  Fe  Fe10      1.0  0.027456023489310418  0.997652172968442  0.7500708700331395  1.0000
