data_image0
_chemical_formula_structural       FeBFe4B2FeB3
_chemical_formula_sum              "Fe6 B6"
_cell_length_a       2.9382997361350016
_cell_length_b       4.01170932263291
_cell_length_c       8.171073913574219
_cell_angle_alpha    97.2670359768155
_cell_angle_beta     89.95783974289711
_cell_angle_gamma    90.00334246683342

_space_group_name_H-M_alt    "P 1"
_space_group_IT_number       1

loop_
  _space_group_symop_operation_xyz
  'x, y, z'

loop_
  _atom_site_type_symbol
  _atom_site_label
  _atom_site_symmetry_multiplicity
  _atom_site_fract_x
  _atom_site_fract_y
  _atom_site_fract_z
  _atom_site_occupancy
  Fe  Fe1       1.0  0.36603030571860506  0.18605031010566564  0.9808139200897549  1.0000
  B   B1        1.0  0.8662010443973414  0.05990276438659092  0.5054785605909625  1.0000
  Fe  Fe2       1.0  0.8659520755122396  0.884199501209665  0.744146764484335  1.0000
  Fe  Fe3       1.0  0.86606216424434  0.7086020718542525  0.07691185972864177  1.0000
  Fe  Fe4       1.0  0.36600687936087195  0.3600695125485546  0.6463238599279406  1.0000
  Fe  Fe5       1.0  0.3663991380434216  0.011055403469667796  0.3138352931337903  1.0000
  B   B2        1.0  0.3660259843408295  0.8357260831715316  0.5523334151452852  1.0000
  B   B3        1.0  0.366145370786785  0.4838434469865802  0.2185192253260152  1.0000
  Fe  Fe6       1.0  0.8660545936893902  0.5357896688460894  0.41048601282193115  1.0000
  B   B4        1.0  0.8661206953897835  0.2326000620422519  0.17170019432756695  1.0000
  B   B5        1.0  0.36612576396573004  0.661070288272311  0.8855369689811742  1.0000
  B   B6        1.0  0.8658668395875292  0.4111437496714569  0.8389862771480524  1.0000
