data_image0
_chemical_formula_structural       BeFe3
_chemical_formula_sum              "Be1 Fe3"
_cell_length_a       2.4397310326508777
_cell_length_b       2.441540542718409
_cell_length_c       7.386785984039307
_cell_angle_alpha    89.96189688026675
_cell_angle_beta     89.97990808660285
_cell_angle_gamma    102.37225494121469

_space_group_name_H-M_alt    "P 1"
_space_group_IT_number       1

loop_
  _space_group_symop_operation_xyz
  'x, y, z'

loop_
  _atom_site_type_symbol
  _atom_site_label
  _atom_site_symmetry_multiplicity
  _atom_site_fract_x
  _atom_site_fract_y
  _atom_site_fract_z
  _atom_site_occupancy
  Be  Be1       1.0  0.13940788855163044  0.517931281470521  0.04605664687119404  1.0000
  Fe  Fe1       1.0  0.13955795849283026  0.5182119001260811  0.5462455157454382  1.0000
  Fe  Fe2       1.0  0.6392528405467863  0.017592973647252506  0.2744755448708592  1.0000
  Fe  Fe3       1.0  0.6393091689433607  0.018301202082061742  0.8179631239808045  1.0000
