data_image0
_chemical_formula_structural       GdN2GdNGdOGdNGd
_chemical_formula_sum              "Gd5 N4 O1"
_cell_length_a       4.9660299599214675
_cell_length_b       6.095404907418032
_cell_length_c       6.094755172729492
_cell_angle_alpha    80.4445546685938
_cell_angle_beta     66.0073303823239
_cell_angle_gamma    65.96759715323296

_space_group_name_H-M_alt    "P 1"
_space_group_IT_number       1

loop_
  _space_group_symop_operation_xyz
  'x, y, z'

loop_
  _atom_site_type_symbol
  _atom_site_label
  _atom_site_symmetry_multiplicity
  _atom_site_fract_x
  _atom_site_fract_y
  _atom_site_fract_z
  _atom_site_occupancy
  Gd  Gd1       1.0  0.48960131510541965  0.4615799780861488  0.2456285349464471  1.0000
  N   N1        1.0  0.3907378328327477  0.8594614857656915  0.0449778920322178  1.0000
  N   N2        1.0  0.1904394635876994  0.6618766183960589  0.6434888241283971  1.0000
  Gd  Gd2       1.0  0.29357948852331783  0.25970521504600735  0.8387774231055397  1.0000
  N   N3        1.0  0.7883132695253761  0.26167040980829287  0.8474473960645919  1.0000
  Gd  Gd3       1.0  0.09153412233557978  0.055101923260447085  0.447823732607085  1.0000
  O   O1        1.0  0.9894505144534762  0.461696922037917  0.24571555917248378  1.0000
  Gd  Gd4       1.0  0.6849111316418687  0.6638855330920203  0.6521736382096048  1.0000
  N   N4        1.0  0.5879955897404429  0.06428325842451643  0.44594666361930285  1.0000
  Gd  Gd5       1.0  0.8870356076229391  0.868432164461461  0.04321404248370052  1.0000
