data_image0
_chemical_formula_structural       Ti2FeTi2FeTiZrFe6
_chemical_formula_sum              "Ti5 Fe8 Zr1"
_cell_length_a       4.659094102437635
_cell_length_b       6.909500565111723
_cell_length_c       6.909667491912842
_cell_angle_alpha    73.35578601626264
_cell_angle_beta     70.38024187869165
_cell_angle_gamma    70.37193745124911

_space_group_name_H-M_alt    "P 1"
_space_group_IT_number       1

loop_
  _space_group_symop_operation_xyz
  'x, y, z'

loop_
  _atom_site_type_symbol
  _atom_site_label
  _atom_site_symmetry_multiplicity
  _atom_site_fract_x
  _atom_site_fract_y
  _atom_site_fract_z
  _atom_site_occupancy
  Ti  Ti1       1.0  0.29986292215535054  0.1264866446243086  0.0971468231237827  1.0000
  Ti  Ti2       1.0  0.5537890191704403  0.8678817148883621  0.8484987612330757  1.0000
  Fe  Fe1       1.0  0.42266544623767455  0.5014072664259382  0.47755634777949624  1.0000
  Ti  Ti3       1.0  0.7987457525147231  0.6245534414095494  0.6042746297524698  1.0000
  Ti  Ti4       1.0  0.6757090103013166  0.4294506902035464  0.04388043310871699  1.0000
  Fe  Fe2       1.0  0.17171083342522925  0.2510999146271917  0.7272266150439346  1.0000
  Ti  Ti5       1.0  0.05275129616230241  0.3747197680617018  0.3453254108354687  1.0000
  Zr  Zr1       1.0  0.6763437989133789  0.07486798555974059  0.39706665294402105  1.0000
  Fe  Fe3       1.0  0.1766434458189353  0.5835205914044161  0.888101459165776  1.0000
  Fe  Fe4       1.0  0.6736001978923993  0.25115364724883604  0.727482200222613  1.0000
  Fe  Fe5       1.0  0.6782511484814435  0.7442083356588501  0.22067999871059996  1.0000
  Fe  Fe6       1.0  0.1746934351401839  0.9031770825781892  0.5701943637904231  1.0000
  Fe  Fe7       1.0  0.18045598314207295  0.7449770570161222  0.2212427107159848  1.0000
  Fe  Fe8       1.0  0.9292805189865612  0.995034098437447  0.969791651546594  1.0000
