data_image0
_chemical_formula_structural       FeCoFe
_chemical_formula_sum              "Fe2 Co1"
_cell_length_a       2.46574
_cell_length_b       2.46605
_cell_length_c       6.18794
_cell_angle_alpha    97.5977
_cell_angle_beta     97.6293
_cell_angle_gamma    109.558

_space_group_name_H-M_alt    "P 1"
_space_group_IT_number       1

loop_
  _space_group_symop_operation_xyz
  'x, y, z'

loop_
  _atom_site_type_symbol
  _atom_site_label
  _atom_site_symmetry_multiplicity
  _atom_site_fract_x
  _atom_site_fract_y
  _atom_site_fract_z
  _atom_site_occupancy
  Fe  Fe1       1.0  0.63412  0.44073  0.81887  1.0000
  Co  Co1       1.0  0.29908  0.10521  0.15082  1.0000
  Fe  Fe2       1.0  0.96546  0.77199  0.48167  1.0000
