data_image0
_chemical_formula_structural       Fe2NiFe4NiH2
_chemical_formula_sum              "Fe6 Ni2 H2"
_cell_length_a       4.44853
_cell_length_b       4.42715
_cell_length_c       5.17407
_cell_angle_alpha    90.1069
_cell_angle_beta     90.029
_cell_angle_gamma    109.106

_space_group_name_H-M_alt    "P 1"
_space_group_IT_number       1

loop_
  _space_group_symop_operation_xyz
  'x, y, z'

loop_
  _atom_site_type_symbol
  _atom_site_label
  _atom_site_symmetry_multiplicity
  _atom_site_fract_x
  _atom_site_fract_y
  _atom_site_fract_z
  _atom_site_occupancy
  Fe  Fe1       1.0  0.61828  0.25354  0.87255  1.0000
  Fe  Fe2       1.0  0.12047  0.74401  0.39163  1.0000
  Ni  Ni1       1.0  0.11957  0.25494  0.63434  1.0000
  Fe  Fe3       1.0  0.61842  0.74423  0.12362  1.0000
  Fe  Fe4       1.0  0.11351  0.25857  0.11992  1.0000
  Fe  Fe5       1.0  0.61631  0.25926  0.38639  1.0000
  Fe  Fe6       1.0  0.61645  0.74973  0.63743  1.0000
  Ni  Ni2       1.0  0.11454  0.74795  0.87632  1.0000
  H   H1        1.0  0.86481  0.99909  0.37709  1.0000
  H   H2        1.0  0.36870  0.00355  0.13369  1.0000
