data_image0
_chemical_formula_structural       FeCoFeCoFeCoFe3
_chemical_formula_sum              "Fe6 Co3"
_cell_length_a       2.83286
_cell_length_b       6.22862
_cell_length_c       6.23181
_cell_angle_alpha    87.306
_cell_angle_beta     76.8757
_cell_angle_gamma    76.8591

_space_group_name_H-M_alt    "P 1"
_space_group_IT_number       1

loop_
  _space_group_symop_operation_xyz
  'x, y, z'

loop_
  _atom_site_type_symbol
  _atom_site_label
  _atom_site_symmetry_multiplicity
  _atom_site_fract_x
  _atom_site_fract_y
  _atom_site_fract_z
  _atom_site_occupancy
  Fe  Fe1       1.0  0.31828  0.38287  0.17528  1.0000
  Co  Co1       1.0  0.98520  0.38232  0.84174  1.0000
  Fe  Fe2       1.0  0.98434  0.71656  0.50847  1.0000
  Co  Co2       1.0  0.65143  0.38472  0.50638  1.0000
  Fe  Fe3       1.0  0.98393  0.04918  0.17751  1.0000
  Co  Co3       1.0  0.31755  0.04961  0.50912  1.0000
  Fe  Fe4       1.0  0.31881  0.71413  0.84218  1.0000
  Fe  Fe5       1.0  0.65137  0.71759  0.17440  1.0000
  Fe  Fe6       1.0  0.65148  0.05156  0.83963  1.0000
