data_image0
_chemical_formula_structural       Fe3Co3FeCoFe
_chemical_formula_sum              "Fe5 Co4"
_cell_length_a       2.80503
_cell_length_b       6.17233
_cell_length_c       6.20756
_cell_angle_alpha    87.1233
_cell_angle_beta     76.9945
_cell_angle_gamma    76.9099

_space_group_name_H-M_alt    "P 1"
_space_group_IT_number       1

loop_
  _space_group_symop_operation_xyz
  'x, y, z'

loop_
  _atom_site_type_symbol
  _atom_site_label
  _atom_site_symmetry_multiplicity
  _atom_site_fract_x
  _atom_site_fract_y
  _atom_site_fract_z
  _atom_site_occupancy
  Fe  Fe1       1.0  0.76349  0.81424  0.05281  1.0000
  Fe  Fe2       1.0  0.42799  0.15062  0.38760  1.0000
  Fe  Fe3       1.0  0.43003  0.81598  0.71880  1.0000
  Co  Co1       1.0  0.76280  0.15006  0.71879  1.0000
  Co  Co2       1.0  0.43052  0.48200  0.05126  1.0000
  Co  Co3       1.0  0.09527  0.48598  0.71872  1.0000
  Fe  Fe4       1.0  0.09685  0.15069  0.05026  1.0000
  Co  Co4       1.0  0.76327  0.48209  0.38605  1.0000
  Fe  Fe5       1.0  0.09762  0.81409  0.38480  1.0000
