data_image0
_chemical_formula_structural       Eu3ZrO4EuOZr2O2ZrO3
_chemical_formula_sum              "Eu4 Zr4 O10"
_cell_length_a       4.22156
_cell_length_b       7.706
_cell_length_c       8.41562
_cell_angle_alpha    89.9486
_cell_angle_beta     90.003
_cell_angle_gamma    90.0512

_space_group_name_H-M_alt    "P 1"
_space_group_IT_number       1

loop_
  _space_group_symop_operation_xyz
  'x, y, z'

loop_
  _atom_site_type_symbol
  _atom_site_label
  _atom_site_symmetry_multiplicity
  _atom_site_fract_x
  _atom_site_fract_y
  _atom_site_fract_z
  _atom_site_occupancy
  Eu  Eu1       1.0  0.92858  0.99832  0.66208  1.0000
  Eu  Eu2       1.0  0.92834  0.99851  0.16178  1.0000
  Eu  Eu3       1.0  0.92850  0.49875  0.66190  1.0000
  Zr  Zr1       1.0  0.42808  0.76684  0.41223  1.0000
  O   O1        1.0  0.92852  0.76847  0.91206  1.0000
  O   O2        1.0  0.42831  0.49853  0.91169  1.0000
  O   O3        1.0  0.92925  0.22823  0.91200  1.0000
  O   O4        1.0  0.42801  0.76836  0.66259  1.0000
  Eu  Eu4       1.0  0.92775  0.49874  0.16272  1.0000
  O   O5        1.0  0.42838  0.22802  0.66258  1.0000
  Zr  Zr2       1.0  0.42848  0.23047  0.41170  1.0000
  Zr  Zr3       1.0  0.42859  0.76612  0.91223  1.0000
  O   O6        1.0  0.92831  0.76840  0.41268  1.0000
  O   O7        1.0  0.42836  0.49824  0.41272  1.0000
  Zr  Zr4       1.0  0.42813  0.23111  0.91201  1.0000
  O   O8        1.0  0.42724  0.22939  0.16215  1.0000
  O   O9        1.0  0.92808  0.22857  0.41230  1.0000
  O   O10       1.0  0.42774  0.76750  0.16224  1.0000
