data_image0
_chemical_formula_structural       Fe3CoFeCo3
_chemical_formula_sum              "Fe4 Co4"
_cell_length_a       4.01287
_cell_length_b       4.01236
_cell_length_c       5.77592
_cell_angle_alpha    89.9766
_cell_angle_beta     89.9955
_cell_angle_gamma    90.0288

_space_group_name_H-M_alt    "P 1"
_space_group_IT_number       1

loop_
  _space_group_symop_operation_xyz
  'x, y, z'

loop_
  _atom_site_type_symbol
  _atom_site_label
  _atom_site_symmetry_multiplicity
  _atom_site_fract_x
  _atom_site_fract_y
  _atom_site_fract_z
  _atom_site_occupancy
  Fe  Fe1       1.0  0.95690  0.37808  0.69287  1.0000
  Fe  Fe2       1.0  0.45677  0.37813  0.95441  1.0000
  Fe  Fe3       1.0  0.45688  0.87839  0.69260  1.0000
  Co  Co1       1.0  0.95682  0.37827  0.19557  1.0000
  Fe  Fe4       1.0  0.95673  0.87843  0.95458  1.0000
  Co  Co2       1.0  0.45679  0.37844  0.45145  1.0000
  Co  Co3       1.0  0.45692  0.87817  0.19561  1.0000
  Co  Co4       1.0  0.95674  0.87825  0.45166  1.0000
