data_image0
_chemical_formula_structural       GdCo3Ni2
_chemical_formula_sum              "Gd1 Co3 Ni2"
_cell_length_a       4.0587
_cell_length_b       4.8872
_cell_length_c       4.8926
_cell_angle_alpha    119.937
_cell_angle_beta     89.9949
_cell_angle_gamma    89.9605

_space_group_name_H-M_alt    "P 1"
_space_group_IT_number       1

loop_
  _space_group_symop_operation_xyz
  'x, y, z'

loop_
  _atom_site_type_symbol
  _atom_site_label
  _atom_site_symmetry_multiplicity
  _atom_site_fract_x
  _atom_site_fract_y
  _atom_site_fract_z
  _atom_site_occupancy
  Gd  Gd1       1.0  0.22763  0.50699  0.67687  1.0000
  Co  Co1       1.0  0.72766  0.00689  0.17705  1.0000
  Co  Co2       1.0  0.72757  0.50661  0.17708  1.0000
  Co  Co3       1.0  0.72760  0.00693  0.67684  1.0000
  Ni  Ni1       1.0  0.22728  0.17338  0.01030  1.0000
  Ni  Ni2       1.0  0.22747  0.83989  0.34322  1.0000
