data_image0
_chemical_formula_structural       RhFe2Co
_chemical_formula_sum              "Rh1 Fe2 Co1"
_cell_length_a       2.90078
_cell_length_b       2.90042
_cell_length_c       6.02511
_cell_angle_alpha    90.0106
_cell_angle_beta     90.0282
_cell_angle_gamma    89.9985

_space_group_name_H-M_alt    "P 1"
_space_group_IT_number       1

loop_
  _space_group_symop_operation_xyz
  'x, y, z'

loop_
  _atom_site_type_symbol
  _atom_site_label
  _atom_site_symmetry_multiplicity
  _atom_site_fract_x
  _atom_site_fract_y
  _atom_site_fract_z
  _atom_site_occupancy
  Rh  Rh1       1.0  0.47714  0.48831  0.96680  1.0000
  Fe  Fe1       1.0  0.97684  0.98839  0.22594  1.0000
  Fe  Fe2       1.0  0.47703  0.48847  0.46592  1.0000
  Co  Co1       1.0  0.97702  0.98800  0.69079  1.0000
