data_image0
_chemical_formula_structural       Fe4Co3Fe
_chemical_formula_sum              "Fe5 Co3"
_cell_length_a       2.83417
_cell_length_b       4.03301
_cell_length_c       8.42984
_cell_angle_alpha    103.888
_cell_angle_beta     99.7138
_cell_angle_gamma    89.99

_space_group_name_H-M_alt    "P 1"
_space_group_IT_number       1

loop_
  _space_group_symop_operation_xyz
  'x, y, z'

loop_
  _atom_site_type_symbol
  _atom_site_label
  _atom_site_symmetry_multiplicity
  _atom_site_fract_x
  _atom_site_fract_y
  _atom_site_fract_z
  _atom_site_occupancy
  Fe  Fe1       1.0  0.46102  0.09633  0.42281  1.0000
  Fe  Fe2       1.0  0.08666  0.22187  0.67462  1.0000
  Fe  Fe3       1.0  0.33519  0.47103  0.17185  1.0000
  Fe  Fe4       1.0  0.83465  0.97085  0.17093  1.0000
  Co  Co1       1.0  0.21042  0.84631  0.92282  1.0000
  Co  Co2       1.0  0.96105  0.59616  0.42282  1.0000
  Co  Co3       1.0  0.71051  0.34661  0.92279  1.0000
  Fe  Fe5       1.0  0.58618  0.72153  0.67364  1.0000
