data_image0
_chemical_formula_structural       Gd3Tb
_chemical_formula_sum              "Gd3 Tb1"
_cell_length_a       5.0734
_cell_length_b       6.22523
_cell_length_c       5.0723
_cell_angle_alpha    113.835
_cell_angle_beta     89.9376
_cell_angle_gamma    114.02

_space_group_name_H-M_alt    "P 1"
_space_group_IT_number       1

loop_
  _space_group_symop_operation_xyz
  'x, y, z'

loop_
  _atom_site_type_symbol
  _atom_site_label
  _atom_site_symmetry_multiplicity
  _atom_site_fract_x
  _atom_site_fract_y
  _atom_site_fract_z
  _atom_site_occupancy
  Gd  Gd1       1.0  0.12537  0.48352  0.71745  1.0000
  Gd  Gd2       1.0  0.62494  0.48366  0.21764  1.0000
  Gd  Gd3       1.0  0.87565  0.98391  0.96774  1.0000
  Tb  Tb1       1.0  0.37523  0.98388  0.46741  1.0000
