data_image0
_chemical_formula_structural       CoFeCoRh
_chemical_formula_sum              "Co2 Fe1 Rh1"
_cell_length_a       2.88718
_cell_length_b       4.17444
_cell_length_c       4.8396
_cell_angle_alpha    115.582
_cell_angle_beta     107.358
_cell_angle_gamma    89.9649

_space_group_name_H-M_alt    "P 1"
_space_group_IT_number       1

loop_
  _space_group_symop_operation_xyz
  'x, y, z'

loop_
  _atom_site_type_symbol
  _atom_site_label
  _atom_site_symmetry_multiplicity
  _atom_site_fract_x
  _atom_site_fract_y
  _atom_site_fract_z
  _atom_site_occupancy
  Co  Co1       1.0  0.42966  0.52819  0.52900  1.0000
  Fe  Fe1       1.0  0.91081  0.00911  0.49129  1.0000
  Co  Co2       1.0  0.17259  0.76952  0.01534  1.0000
  Rh  Rh1       1.0  0.66689  0.26444  0.00359  1.0000
