data_image0
_chemical_formula_structural       TiMnFe2TiFe7
_chemical_formula_sum              "Ti2 Mn1 Fe9"
_cell_length_a       4.06541
_cell_length_b       4.06392
_cell_length_c       10.0618
_cell_angle_alpha    89.9795
_cell_angle_beta     90.0052
_cell_angle_gamma    120.011

_space_group_name_H-M_alt    "P 1"
_space_group_IT_number       1

loop_
  _space_group_symop_operation_xyz
  'x, y, z'

loop_
  _atom_site_type_symbol
  _atom_site_label
  _atom_site_symmetry_multiplicity
  _atom_site_fract_x
  _atom_site_fract_y
  _atom_site_fract_z
  _atom_site_occupancy
  Ti  Ti1       1.0  0.57734  0.47633  0.15637  1.0000
  Mn  Mn1       1.0  0.91073  0.14323  0.24656  1.0000
  Fe  Fe1       1.0  0.57728  0.47661  0.65122  1.0000
  Fe  Fe2       1.0  0.91104  0.14328  0.48781  1.0000
  Ti  Ti2       1.0  0.91062  0.14349  0.73918  1.0000
  Fe  Fe3       1.0  0.24412  0.80986  0.57273  1.0000
  Fe  Fe4       1.0  0.57762  0.47658  0.40871  1.0000
  Fe  Fe5       1.0  0.91060  0.14304  0.99385  1.0000
  Fe  Fe6       1.0  0.57697  0.47662  0.90305  1.0000
  Fe  Fe7       1.0  0.24387  0.80941  0.07167  1.0000
  Fe  Fe8       1.0  0.24405  0.81027  0.82724  1.0000
  Fe  Fe9       1.0  0.24430  0.80989  0.32367  1.0000
