data_image0
_chemical_formula_structural       MnCo3
_chemical_formula_sum              "Mn1 Co3"
_cell_length_a       2.87492
_cell_length_b       2.87659
_cell_length_c       5.7959
_cell_angle_alpha    89.5232
_cell_angle_beta     89.4513
_cell_angle_gamma    89.453

_space_group_name_H-M_alt    "P 1"
_space_group_IT_number       1

loop_
  _space_group_symop_operation_xyz
  'x, y, z'

loop_
  _atom_site_type_symbol
  _atom_site_label
  _atom_site_symmetry_multiplicity
  _atom_site_fract_x
  _atom_site_fract_y
  _atom_site_fract_z
  _atom_site_occupancy
  Mn  Mn1       1.0  0.28253  0.10102  0.51706  1.0000
  Co  Co1       1.0  0.28289  0.10150  0.01718  1.0000
  Co  Co2       1.0  0.78213  0.60112  0.77271  1.0000
  Co  Co3       1.0  0.78413  0.60244  0.26159  1.0000
