data_image0
_chemical_formula_structural       Fe4CoFeCoFe
_chemical_formula_sum              "Fe6 Co2"
_cell_length_a       4.02719
_cell_length_b       4.93971
_cell_length_c       4.94243
_cell_angle_alpha    109.33
_cell_angle_beta     90.0098
_cell_angle_gamma    89.9997

_space_group_name_H-M_alt    "P 1"
_space_group_IT_number       1

loop_
  _space_group_symop_operation_xyz
  'x, y, z'

loop_
  _atom_site_type_symbol
  _atom_site_label
  _atom_site_symmetry_multiplicity
  _atom_site_fract_x
  _atom_site_fract_y
  _atom_site_fract_z
  _atom_site_occupancy
  Fe  Fe1       1.0  0.36951  0.58863  0.30265  1.0000
  Fe  Fe2       1.0  0.86967  0.83798  0.05340  1.0000
  Fe  Fe3       1.0  0.36956  0.08907  0.30369  1.0000
  Fe  Fe4       1.0  0.86947  0.83855  0.55385  1.0000
  Co  Co1       1.0  0.86958  0.33789  0.55324  1.0000
  Fe  Fe5       1.0  0.36956  0.58753  0.80238  1.0000
  Co  Co2       1.0  0.36964  0.08839  0.80269  1.0000
  Fe  Fe6       1.0  0.86951  0.33732  0.05239  1.0000
