data_image0
_chemical_formula_structural       Fe9NiFeNi
_chemical_formula_sum              "Fe10 Ni2"
_cell_length_a       3.47514
_cell_length_b       5.17911
_cell_length_c       7.79533
_cell_angle_alpha    89.4654
_cell_angle_beta     89.6435
_cell_angle_gamma    89.561

_space_group_name_H-M_alt    "P 1"
_space_group_IT_number       1

loop_
  _space_group_symop_operation_xyz
  'x, y, z'

loop_
  _atom_site_type_symbol
  _atom_site_label
  _atom_site_symmetry_multiplicity
  _atom_site_fract_x
  _atom_site_fract_y
  _atom_site_fract_z
  _atom_site_occupancy
  Fe  Fe1       1.0  0.83809  0.96806  0.50369  1.0000
  Fe  Fe2       1.0  0.33820  0.71604  0.67598  1.0000
  Fe  Fe3       1.0  0.83822  0.96557  0.84066  1.0000
  Fe  Fe4       1.0  0.83878  0.46891  0.17711  1.0000
  Fe  Fe5       1.0  0.33774  0.71471  0.00827  1.0000
  Fe  Fe6       1.0  0.83802  0.96716  0.17891  1.0000
  Fe  Fe7       1.0  0.33889  0.21706  0.00525  1.0000
  Fe  Fe8       1.0  0.33828  0.21987  0.34109  1.0000
  Fe  Fe9       1.0  0.33871  0.21919  0.67851  1.0000
  Ni  Ni1       1.0  0.33764  0.71847  0.34099  1.0000
  Fe  Fe10      1.0  0.83804  0.47014  0.50864  1.0000
  Ni  Ni2       1.0  0.83816  0.46586  0.84233  1.0000
