data_image0
_chemical_formula_structural       FeCo2Fe3Co
_chemical_formula_sum              "Fe4 Co3"
_cell_length_a       2.85742
_cell_length_b       2.85711
_cell_length_c       10.1635
_cell_angle_alpha    98.0992
_cell_angle_beta     98.0632
_cell_angle_gamma    89.9829

_space_group_name_H-M_alt    "P 1"
_space_group_IT_number       1

loop_
  _space_group_symop_operation_xyz
  'x, y, z'

loop_
  _atom_site_type_symbol
  _atom_site_label
  _atom_site_symmetry_multiplicity
  _atom_site_fract_x
  _atom_site_fract_y
  _atom_site_fract_z
  _atom_site_occupancy
  Fe  Fe1       1.0  0.09599  0.16631  0.08571  1.0000
  Co  Co1       1.0  0.80902  0.87979  0.51205  1.0000
  Co  Co2       1.0  0.95111  0.02220  0.79672  1.0000
  Fe  Fe2       1.0  0.37962  0.45075  0.65397  1.0000
  Fe  Fe3       1.0  0.52222  0.59274  0.93901  1.0000
  Fe  Fe4       1.0  0.23786  0.30841  0.36891  1.0000
  Co  Co3       1.0  0.66706  0.73712  0.22795  1.0000
