data_image0
_chemical_formula_structural       GdOGd2OGd2OMnO2
_chemical_formula_sum              "Gd5 O5 Mn1"
_cell_length_a       3.4372
_cell_length_b       3.43844
_cell_length_c       14.4115
_cell_angle_alpha    90.0101
_cell_angle_beta     90.0058
_cell_angle_gamma    90.0192

_space_group_name_H-M_alt    "P 1"
_space_group_IT_number       1

loop_
  _space_group_symop_operation_xyz
  'x, y, z'

loop_
  _atom_site_type_symbol
  _atom_site_label
  _atom_site_symmetry_multiplicity
  _atom_site_fract_x
  _atom_site_fract_y
  _atom_site_fract_z
  _atom_site_occupancy
  Gd  Gd1       1.0  0.77049  0.39426  0.72010  1.0000
  O   O1        1.0  0.77105  0.39426  0.56146  1.0000
  Gd  Gd2       1.0  0.77058  0.39374  0.40422  1.0000
  Gd  Gd3       1.0  0.77040  0.39347  0.06113  1.0000
  O   O2        1.0  0.76973  0.39493  0.89296  1.0000
  Gd  Gd4       1.0  0.27110  0.89348  0.23146  1.0000
  Gd  Gd5       1.0  0.27002  0.89425  0.88923  1.0000
  O   O3        1.0  0.27026  0.89438  0.71727  1.0000
  Mn  Mn1       1.0  0.27075  0.89472  0.56057  1.0000
  O   O4        1.0  0.27143  0.89467  0.05457  1.0000
  O   O5        1.0  0.27074  0.89464  0.40899  1.0000
