data_image0
_chemical_formula_structural       CoGdCo
_chemical_formula_sum              "Co2 Gd1"
_cell_length_a       4.03512
_cell_length_b       3.89817
_cell_length_c       3.8947
_cell_angle_alpha    120.017
_cell_angle_beta     89.9681
_cell_angle_gamma    90.0547

_space_group_name_H-M_alt    "P 1"
_space_group_IT_number       1

loop_
  _space_group_symop_operation_xyz
  'x, y, z'

loop_
  _atom_site_type_symbol
  _atom_site_label
  _atom_site_symmetry_multiplicity
  _atom_site_fract_x
  _atom_site_fract_y
  _atom_site_fract_z
  _atom_site_occupancy
  Co  Co1       1.0  0.83361  0.84541  0.45461  1.0000
  Gd  Gd1       1.0  0.33354  0.17836  0.12117  1.0000
  Co  Co2       1.0  0.83351  0.51196  0.78763  1.0000
