data_image0
_chemical_formula_structural       CoFe2CoFe9CoFe2
_chemical_formula_sum              "Co3 Fe13"
_cell_length_a       5.71364
_cell_length_b       5.71587
_cell_length_c       5.70429
_cell_angle_alpha    89.9709
_cell_angle_beta     89.9621
_cell_angle_gamma    89.9223

_space_group_name_H-M_alt    "P 1"
_space_group_IT_number       1

loop_
  _space_group_symop_operation_xyz
  'x, y, z'

loop_
  _atom_site_type_symbol
  _atom_site_label
  _atom_site_symmetry_multiplicity
  _atom_site_fract_x
  _atom_site_fract_y
  _atom_site_fract_z
  _atom_site_occupancy
  Co  Co1       1.0  0.76955  0.26742  0.50011  1.0000
  Fe  Fe1       1.0  0.76990  0.76753  0.99997  1.0000
  Fe  Fe2       1.0  0.76978  0.76765  0.50035  1.0000
  Co  Co2       1.0  0.26982  0.76767  0.50010  1.0000
  Fe  Fe3       1.0  0.01996  0.01798  0.25040  1.0000
  Fe  Fe4       1.0  0.02000  0.51702  0.74981  1.0000
  Fe  Fe5       1.0  0.02001  0.01808  0.74983  1.0000
  Fe  Fe6       1.0  0.51964  0.51714  0.75005  1.0000
  Fe  Fe7       1.0  0.02003  0.51729  0.25033  1.0000
  Fe  Fe8       1.0  0.76981  0.26752  0.99985  1.0000
  Fe  Fe9       1.0  0.51960  0.01755  0.25025  1.0000
  Fe  Fe10      1.0  0.51966  0.51745  0.25018  1.0000
  Fe  Fe11      1.0  0.26983  0.76757  0.00029  1.0000
  Co  Co3       1.0  0.26989  0.26724  0.00005  1.0000
  Fe  Fe12      1.0  0.51953  0.01776  0.74998  1.0000
  Fe  Fe13      1.0  0.26978  0.26736  0.50007  1.0000
