data_image0
_chemical_formula_structural       GdTlGd2
_chemical_formula_sum              "Gd3 Tl1"
_cell_length_a       4.83393
_cell_length_b       4.83587
_cell_length_c       6.15631
_cell_angle_alpha    113.193
_cell_angle_beta     113.15
_cell_angle_gamma    89.9881

_space_group_name_H-M_alt    "P 1"
_space_group_IT_number       1

loop_
  _space_group_symop_operation_xyz
  'x, y, z'

loop_
  _atom_site_type_symbol
  _atom_site_label
  _atom_site_symmetry_multiplicity
  _atom_site_fract_x
  _atom_site_fract_y
  _atom_site_fract_z
  _atom_site_occupancy
  Gd  Gd1       1.0  0.47743  0.00011  0.16515  1.0000
  Tl  Tl1       1.0  0.72765  0.75007  0.66486  1.0000
  Gd  Gd2       1.0  0.22749  0.25023  0.66505  1.0000
  Gd  Gd3       1.0  0.97733  0.50038  0.16443  1.0000
