data_image0
_chemical_formula_structural       CoFeCo2
_chemical_formula_sum              "Co3 Fe1"
_cell_length_a       2.82711
_cell_length_b       4.01282
_cell_length_c       4.67773
_cell_angle_alpha    115.357
_cell_angle_beta     107.574
_cell_angle_gamma    90.0085

_space_group_name_H-M_alt    "P 1"
_space_group_IT_number       1

loop_
  _space_group_symop_operation_xyz
  'x, y, z'

loop_
  _atom_site_type_symbol
  _atom_site_label
  _atom_site_symmetry_multiplicity
  _atom_site_fract_x
  _atom_site_fract_y
  _atom_site_fract_z
  _atom_site_occupancy
  Co  Co1       1.0  0.94465  0.64264  0.09162  1.0000
  Fe  Fe1       1.0  0.19980  0.39738  0.60105  1.0000
  Co  Co2       1.0  0.45413  0.15219  0.11057  1.0000
  Co  Co3       1.0  0.70024  0.89797  0.60090  1.0000
