data_image0
_chemical_formula_structural       Gd3O3FOFO2Gd
_chemical_formula_sum              "Gd4 O6 F2"
_cell_length_a       3.68735
_cell_length_b       6.08573
_cell_length_c       6.8892
_cell_angle_alpha    89.9361
_cell_angle_beta     89.9685
_cell_angle_gamma    90.0181

_space_group_name_H-M_alt    "P 1"
_space_group_IT_number       1

loop_
  _space_group_symop_operation_xyz
  'x, y, z'

loop_
  _atom_site_type_symbol
  _atom_site_label
  _atom_site_symmetry_multiplicity
  _atom_site_fract_x
  _atom_site_fract_y
  _atom_site_fract_z
  _atom_site_occupancy
  Gd  Gd1       1.0  0.93304  0.75609  0.21823  1.0000
  Gd  Gd2       1.0  0.43310  0.21913  0.42804  1.0000
  Gd  Gd3       1.0  0.93324  0.25617  0.94428  1.0000
  O   O1        1.0  0.93270  0.13164  0.25851  1.0000
  O   O2        1.0  0.93305  0.63151  0.90441  1.0000
  O   O3        1.0  0.43317  0.96544  0.99892  1.0000
  F   F1        1.0  0.93321  0.50691  0.49306  1.0000
  O   O4        1.0  0.43284  0.46599  0.16485  1.0000
  F   F2        1.0  0.93277  0.00903  0.66882  1.0000
  O   O5        1.0  0.43274  0.33591  0.75014  1.0000
  O   O6        1.0  0.43316  0.83603  0.41403  1.0000
  Gd  Gd4       1.0  0.43316  0.71869  0.73467  1.0000
