data_image0
_chemical_formula_structural       Fe4
_chemical_formula_sum              "Fe4"
_cell_length_a       2.8658
_cell_length_b       4.09027
_cell_length_c       4.72649
_cell_angle_alpha    113.119
_cell_angle_beta     106.614
_cell_angle_gamma    89.3803

_space_group_name_H-M_alt    "P 1"
_space_group_IT_number       1

loop_
  _space_group_symop_operation_xyz
  'x, y, z'

loop_
  _atom_site_type_symbol
  _atom_site_label
  _atom_site_symmetry_multiplicity
  _atom_site_fract_x
  _atom_site_fract_y
  _atom_site_fract_z
  _atom_site_occupancy
  Fe  Fe1       1.0  0.16409  0.21991  0.21541  1.0000
  Fe  Fe2       1.0  0.41106  0.97014  0.71397  1.0000
  Fe  Fe3       1.0  0.66300  0.72061  0.21616  1.0000
  Fe  Fe4       1.0  0.91264  0.47213  0.71605  1.0000
