data_image0
_chemical_formula_structural       PbLiGd2
_chemical_formula_sum              "Pb1 Li1 Gd2"
_cell_length_a       4.41513
_cell_length_b       4.89047
_cell_length_c       4.89743
_cell_angle_alpha    90.0009
_cell_angle_beta     89.9999
_cell_angle_gamma    89.9858

_space_group_name_H-M_alt    "P 1"
_space_group_IT_number       1

loop_
  _space_group_symop_operation_xyz
  'x, y, z'

loop_
  _atom_site_type_symbol
  _atom_site_label
  _atom_site_symmetry_multiplicity
  _atom_site_fract_x
  _atom_site_fract_y
  _atom_site_fract_z
  _atom_site_occupancy
  Pb  Pb1       1.0  0.50699  0.20131  0.01852  1.0000
  Li  Li1       1.0  0.50627  0.70102  0.51789  1.0000
  Gd  Gd1       1.0  0.00636  0.70056  0.01792  1.0000
  Gd  Gd2       1.0  0.00682  0.20042  0.51794  1.0000
