data_image0
_chemical_formula_structural       MnCo3
_chemical_formula_sum              "Mn1 Co3"
_cell_length_a       3.99781
_cell_length_b       3.99831
_cell_length_c       3.99861
_cell_angle_alpha    60.0559
_cell_angle_beta     60.0887
_cell_angle_gamma    60.1237

_space_group_name_H-M_alt    "P 1"
_space_group_IT_number       1

loop_
  _space_group_symop_operation_xyz
  'x, y, z'

loop_
  _atom_site_type_symbol
  _atom_site_label
  _atom_site_symmetry_multiplicity
  _atom_site_fract_x
  _atom_site_fract_y
  _atom_site_fract_z
  _atom_site_occupancy
  Mn  Mn1       1.0  0.02114  0.06280  0.40589  1.0000
  Co  Co1       1.0  0.52115  0.56276  0.90585  1.0000
  Co  Co2       1.0  0.77103  0.81273  0.15606  1.0000
  Co  Co3       1.0  0.27107  0.31266  0.65608  1.0000
