data_image0
_chemical_formula_structural       Fe3Co
_chemical_formula_sum              "Fe3 Co1"
_cell_length_a       2.84935
_cell_length_b       4.04203
_cell_length_c       4.74939
_cell_angle_alpha    115.157
_cell_angle_beta     107.386
_cell_angle_gamma    89.9371

_space_group_name_H-M_alt    "P 1"
_space_group_IT_number       1

loop_
  _space_group_symop_operation_xyz
  'x, y, z'

loop_
  _atom_site_type_symbol
  _atom_site_label
  _atom_site_symmetry_multiplicity
  _atom_site_fract_x
  _atom_site_fract_y
  _atom_site_fract_z
  _atom_site_occupancy
  Fe  Fe1       1.0  0.34831  0.45554  0.48620  1.0000
  Fe  Fe2       1.0  0.85126  0.95802  0.49207  1.0000
  Fe  Fe3       1.0  0.09995  0.70618  0.98905  1.0000
  Co  Co1       1.0  0.59999  0.20672  0.98898  1.0000
