data_image0
_chemical_formula_structural       Gd2Cl2GdHGdH
_chemical_formula_sum              "Gd4 Cl2 H2"
_cell_length_a       3.69326
_cell_length_b       3.69127
_cell_length_c       15.6601
_cell_angle_alpha    89.8774
_cell_angle_beta     89.9978
_cell_angle_gamma    119.936

_space_group_name_H-M_alt    "P 1"
_space_group_IT_number       1

loop_
  _space_group_symop_operation_xyz
  'x, y, z'

loop_
  _atom_site_type_symbol
  _atom_site_label
  _atom_site_symmetry_multiplicity
  _atom_site_fract_x
  _atom_site_fract_y
  _atom_site_fract_z
  _atom_site_occupancy
  Gd  Gd1       1.0  0.57557  0.07422  0.61286  1.0000
  Gd  Gd2       1.0  0.90996  0.74095  0.43232  1.0000
  Cl  Cl1       1.0  0.90879  0.74009  0.09465  1.0000
  Cl  Cl2       1.0  0.57629  0.07480  0.31430  1.0000
  Gd  Gd3       1.0  0.90881  0.74016  0.80029  1.0000
  H   H1        1.0  0.24234  0.40621  0.90204  1.0000
  Gd  Gd4       1.0  0.57521  0.07351  0.97859  1.0000
  H   H2        1.0  0.24276  0.40792  0.51075  1.0000
