data_image0
_chemical_formula_structural       MnCo2Fe
_chemical_formula_sum              "Mn1 Co2 Fe1"
_cell_length_a       2.85516
_cell_length_b       2.85463
_cell_length_c       5.73805
_cell_angle_alpha    89.9769
_cell_angle_beta     89.9954
_cell_angle_gamma    89.9503

_space_group_name_H-M_alt    "P 1"
_space_group_IT_number       1

loop_
  _space_group_symop_operation_xyz
  'x, y, z'

loop_
  _atom_site_type_symbol
  _atom_site_label
  _atom_site_symmetry_multiplicity
  _atom_site_fract_x
  _atom_site_fract_y
  _atom_site_fract_z
  _atom_site_occupancy
  Mn  Mn1       1.0  0.52611  0.52276  0.53525  1.0000
  Co  Co1       1.0  0.02615  0.02304  0.79131  1.0000
  Co  Co2       1.0  0.02624  0.02313  0.27835  1.0000
  Fe  Fe1       1.0  0.52620  0.52292  0.03457  1.0000
