data_image0
_chemical_formula_structural       GdAlGdCu
_chemical_formula_sum              "Gd2 Al1 Cu1"
_cell_length_a       5.05755
_cell_length_b       5.05657
_cell_length_c       5.05534
_cell_angle_alpha    60.0175
_cell_angle_beta     60.0083
_cell_angle_gamma    60.0106

_space_group_name_H-M_alt    "P 1"
_space_group_IT_number       1

loop_
  _space_group_symop_operation_xyz
  'x, y, z'

loop_
  _atom_site_type_symbol
  _atom_site_label
  _atom_site_symmetry_multiplicity
  _atom_site_fract_x
  _atom_site_fract_y
  _atom_site_fract_z
  _atom_site_occupancy
  Gd  Gd1       1.0  0.95418  0.93791  0.70570  1.0000
  Al  Al1       1.0  0.20397  0.18778  0.95612  1.0000
  Gd  Gd2       1.0  0.45391  0.43781  0.20634  1.0000
  Cu  Cu1       1.0  0.70384  0.68762  0.45605  1.0000
