data_image0
_chemical_formula_structural       CoFe2Co3
_chemical_formula_sum              "Co4 Fe2"
_cell_length_a       2.84165
_cell_length_b       4.01944
_cell_length_c       6.17348
_cell_angle_alpha    89.9459
_cell_angle_beta     103.349
_cell_angle_gamma    90.0292

_space_group_name_H-M_alt    "P 1"
_space_group_IT_number       1

loop_
  _space_group_symop_operation_xyz
  'x, y, z'

loop_
  _atom_site_type_symbol
  _atom_site_label
  _atom_site_symmetry_multiplicity
  _atom_site_fract_x
  _atom_site_fract_y
  _atom_site_fract_z
  _atom_site_occupancy
  Co  Co1       1.0  0.81700  0.22675  0.78800  1.0000
  Fe  Fe1       1.0  0.98638  0.72622  0.12654  1.0000
  Fe  Fe2       1.0  0.15430  0.22643  0.46215  1.0000
  Co  Co2       1.0  0.65284  0.72589  0.45908  1.0000
  Co  Co3       1.0  0.48776  0.22611  0.12934  1.0000
  Co  Co4       1.0  0.32381  0.72645  0.80053  1.0000
