data_image0
_chemical_formula_structural       Gd3NGd3In2
_chemical_formula_sum              "Gd6 N1 In2"
_cell_length_a       6.95408
_cell_length_b       6.95392
_cell_length_c       6.95087
_cell_angle_alpha    59.9741
_cell_angle_beta     59.9728
_cell_angle_gamma    59.9756

_space_group_name_H-M_alt    "P 1"
_space_group_IT_number       1

loop_
  _space_group_symop_operation_xyz
  'x, y, z'

loop_
  _atom_site_type_symbol
  _atom_site_label
  _atom_site_symmetry_multiplicity
  _atom_site_fract_x
  _atom_site_fract_y
  _atom_site_fract_z
  _atom_site_occupancy
  Gd  Gd1       1.0  0.07895  0.99256  0.20403  1.0000
  Gd  Gd2       1.0  0.56726  0.99275  0.71558  1.0000
  Gd  Gd3       1.0  0.07890  0.99259  0.71575  1.0000
  N   N1        1.0  0.32271  0.74865  0.95940  1.0000
  Gd  Gd4       1.0  0.07869  0.50445  0.20387  1.0000
  Gd  Gd5       1.0  0.56716  0.50458  0.20405  1.0000
  Gd  Gd6       1.0  0.56713  0.50436  0.71575  1.0000
  In  In1       1.0  0.07281  0.49828  0.71018  1.0000
  In  In2       1.0  0.57315  0.99876  0.20975  1.0000
