data_image0
_chemical_formula_structural       Fe5Co4
_chemical_formula_sum              "Fe5 Co4"
_cell_length_a       2.81417
_cell_length_b       6.19193
_cell_length_c       6.19096
_cell_angle_alpha    86.8965
_cell_angle_beta     76.8955
_cell_angle_gamma    76.8719

_space_group_name_H-M_alt    "P 1"
_space_group_IT_number       1

loop_
  _space_group_symop_operation_xyz
  'x, y, z'

loop_
  _atom_site_type_symbol
  _atom_site_label
  _atom_site_symmetry_multiplicity
  _atom_site_fract_x
  _atom_site_fract_y
  _atom_site_fract_z
  _atom_site_occupancy
  Fe  Fe1       1.0  0.98054  0.36047  0.28996  1.0000
  Fe  Fe2       1.0  0.31110  0.36142  0.62753  1.0000
  Fe  Fe3       1.0  0.97988  0.02709  0.62438  1.0000
  Fe  Fe4       1.0  0.97885  0.69391  0.95868  1.0000
  Fe  Fe5       1.0  0.64838  0.69278  0.62100  1.0000
  Co  Co1       1.0  0.64452  0.02997  0.29200  1.0000
  Co  Co2       1.0  0.31488  0.02431  0.95667  1.0000
  Co  Co3       1.0  0.31405  0.69308  0.28947  1.0000
  Co  Co4       1.0  0.64531  0.36156  0.95918  1.0000
