data_image0
_chemical_formula_structural       Fe3Co3
_chemical_formula_sum              "Fe3 Co3"
_cell_length_a       2.83442
_cell_length_b       4.73094
_cell_length_c       5.69736
_cell_angle_alpha    107.474
_cell_angle_beta     90.0262
_cell_angle_gamma    107.425

_space_group_name_H-M_alt    "P 1"
_space_group_IT_number       1

loop_
  _space_group_symop_operation_xyz
  'x, y, z'

loop_
  _atom_site_type_symbol
  _atom_site_label
  _atom_site_symmetry_multiplicity
  _atom_site_fract_x
  _atom_site_fract_y
  _atom_site_fract_z
  _atom_site_occupancy
  Fe  Fe1       1.0  0.12533  0.20768  0.12033  1.0000
  Fe  Fe2       1.0  0.12404  0.20513  0.61788  1.0000
  Fe  Fe3       1.0  0.79440  0.54572  0.95341  1.0000
  Co  Co1       1.0  0.78914  0.53515  0.45179  1.0000
  Co  Co2       1.0  0.45877  0.87472  0.78631  1.0000
  Co  Co3       1.0  0.45914  0.87581  0.28571  1.0000
