data_image0
_chemical_formula_structural       CoFeCoFe
_chemical_formula_sum              "Co2 Fe2"
_cell_length_a       2.84569
_cell_length_b       2.84572
_cell_length_c       5.66663
_cell_angle_alpha    89.9594
_cell_angle_beta     89.9546
_cell_angle_gamma    90.0594

_space_group_name_H-M_alt    "P 1"
_space_group_IT_number       1

loop_
  _space_group_symop_operation_xyz
  'x, y, z'

loop_
  _atom_site_type_symbol
  _atom_site_label
  _atom_site_symmetry_multiplicity
  _atom_site_fract_x
  _atom_site_fract_y
  _atom_site_fract_z
  _atom_site_occupancy
  Co  Co1       1.0  0.69942  0.26616  0.21000  1.0000
  Fe  Fe1       1.0  0.19988  0.76567  0.46017  1.0000
  Co  Co2       1.0  0.70051  0.26658  0.70996  1.0000
  Fe  Fe2       1.0  0.20003  0.76616  0.96027  1.0000
