data_image0
_chemical_formula_structural       CoFeCo4
_chemical_formula_sum              "Co5 Fe1"
_cell_length_a       2.80836
_cell_length_b       4.00661
_cell_length_c       6.3379
_cell_angle_alpha    108.391
_cell_angle_beta     90.0147
_cell_angle_gamma    89.9784

_space_group_name_H-M_alt    "P 1"
_space_group_IT_number       1

loop_
  _space_group_symop_operation_xyz
  'x, y, z'

loop_
  _atom_site_type_symbol
  _atom_site_label
  _atom_site_symmetry_multiplicity
  _atom_site_fract_x
  _atom_site_fract_y
  _atom_site_fract_z
  _atom_site_occupancy
  Co  Co1       1.0  0.48887  0.78922  0.80259  1.0000
  Fe  Fe1       1.0  0.48878  0.11928  0.46219  1.0000
  Co  Co2       1.0  0.98903  0.95609  0.13670  1.0000
  Co  Co3       1.0  0.98880  0.28221  0.78767  1.0000
  Co  Co4       1.0  0.98878  0.61949  0.46201  1.0000
  Co  Co5       1.0  0.48873  0.44905  0.12165  1.0000
