data_image0
_chemical_formula_structural       Gd2Ca
_chemical_formula_sum              "Gd2 Ca1"
_cell_length_a       3.67958
_cell_length_b       3.67603
_cell_length_c       8.32025
_cell_angle_alpha    102.731
_cell_angle_beta     102.709
_cell_angle_gamma    89.9604

_space_group_name_H-M_alt    "P 1"
_space_group_IT_number       1

loop_
  _space_group_symop_operation_xyz
  'x, y, z'

loop_
  _atom_site_type_symbol
  _atom_site_label
  _atom_site_symmetry_multiplicity
  _atom_site_fract_x
  _atom_site_fract_y
  _atom_site_fract_z
  _atom_site_occupancy
  Gd  Gd1       1.0  0.67379  0.26806  0.98298  1.0000
  Gd  Gd2       1.0  0.32172  0.91596  0.27982  1.0000
  Ca  Ca1       1.0  0.99793  0.59207  0.63168  1.0000
