data_image0
_chemical_formula_structural       CoFeCo
_chemical_formula_sum              "Co2 Fe1"
_cell_length_a       2.51132
_cell_length_b       2.50883
_cell_length_c       6.13434
_cell_angle_alpha    89.9786
_cell_angle_beta     90.0097
_cell_angle_gamma    119.947

_space_group_name_H-M_alt    "P 1"
_space_group_IT_number       1

loop_
  _space_group_symop_operation_xyz
  'x, y, z'

loop_
  _atom_site_type_symbol
  _atom_site_label
  _atom_site_symmetry_multiplicity
  _atom_site_fract_x
  _atom_site_fract_y
  _atom_site_fract_z
  _atom_site_occupancy
  Co  Co1       1.0  0.69329  0.20585  0.58041  1.0000
  Fe  Fe1       1.0  0.02627  0.87294  0.91701  1.0000
  Co  Co2       1.0  0.36016  0.53984  0.25326  1.0000
