data_image0
_chemical_formula_structural       Fe6Co4
_chemical_formula_sum              "Fe6 Co4"
_cell_length_a       4.01593
_cell_length_b       4.72329
_cell_length_c       6.99798
_cell_angle_alpha    104.304
_cell_angle_beta     90.008
_cell_angle_gamma    115.132

_space_group_name_H-M_alt    "P 1"
_space_group_IT_number       1

loop_
  _space_group_symop_operation_xyz
  'x, y, z'

loop_
  _atom_site_type_symbol
  _atom_site_label
  _atom_site_symmetry_multiplicity
  _atom_site_fract_x
  _atom_site_fract_y
  _atom_site_fract_z
  _atom_site_occupancy
  Fe  Fe1       1.0  0.74589  0.13528  0.89037  1.0000
  Fe  Fe2       1.0  0.44614  0.53652  0.79347  1.0000
  Fe  Fe3       1.0  0.54577  0.73574  0.49212  1.0000
  Fe  Fe4       1.0  0.84692  0.33752  0.59006  1.0000
  Fe  Fe5       1.0  0.64619  0.93603  0.19170  1.0000
  Fe  Fe6       1.0  0.34496  0.33467  0.09376  1.0000
  Co  Co1       1.0  0.94397  0.53275  0.29285  1.0000
  Co  Co2       1.0  0.14640  0.93675  0.69108  1.0000
  Co  Co3       1.0  0.24753  0.13922  0.39013  1.0000
  Co  Co4       1.0  0.04620  0.73563  0.99236  1.0000
