data_image0
_chemical_formula_structural       GdOGd2OCuO4Gd
_chemical_formula_sum              "Gd4 O6 Cu1"
_cell_length_a       3.70991
_cell_length_b       7.1322
_cell_length_c       6.32889
_cell_angle_alpha    80.4814
_cell_angle_beta     72.8837
_cell_angle_gamma    74.9681

_space_group_name_H-M_alt    "P 1"
_space_group_IT_number       1

loop_
  _space_group_symop_operation_xyz
  'x, y, z'

loop_
  _atom_site_type_symbol
  _atom_site_label
  _atom_site_symmetry_multiplicity
  _atom_site_fract_x
  _atom_site_fract_y
  _atom_site_fract_z
  _atom_site_occupancy
  Gd  Gd1       1.0  0.73927  0.62642  0.04416  1.0000
  O   O1        1.0  0.83494  0.30230  0.17765  1.0000
  Gd  Gd2       1.0  0.24675  0.26959  0.38384  1.0000
  Gd  Gd3       1.0  0.92069  0.80620  0.50332  1.0000
  O   O2        1.0  0.29722  0.77537  0.77993  1.0000
  Cu  Cu1       1.0  0.49357  0.44769  0.71502  1.0000
  O   O3        1.0  0.49282  0.94840  0.21441  1.0000
  O   O4        1.0  0.99271  0.44795  0.71434  1.0000
  O   O5        1.0  0.15214  0.59265  0.25040  1.0000
  O   O6        1.0  0.68946  0.11960  0.64940  1.0000
  Gd  Gd4       1.0  0.06766  0.08927  0.92456  1.0000
