data_image0
_chemical_formula_structural       TbGd3TbGd3
_chemical_formula_sum              "Tb2 Gd6"
_cell_length_a       5.80331
_cell_length_b       7.29566
_cell_length_c       7.28991
_cell_angle_alpha    120.016
_cell_angle_beta     89.9392
_cell_angle_gamma    89.9325

_space_group_name_H-M_alt    "P 1"
_space_group_IT_number       1

loop_
  _space_group_symop_operation_xyz
  'x, y, z'

loop_
  _atom_site_type_symbol
  _atom_site_label
  _atom_site_symmetry_multiplicity
  _atom_site_fract_x
  _atom_site_fract_y
  _atom_site_fract_z
  _atom_site_occupancy
  Tb  Tb1       1.0  0.11022  0.01762  0.50684  1.0000
  Gd  Gd1       1.0  0.10992  0.01750  0.00689  1.0000
  Gd  Gd2       1.0  0.61088  0.85126  0.17399  1.0000
  Gd  Gd3       1.0  0.60991  0.85113  0.67400  1.0000
  Tb  Tb2       1.0  0.61021  0.35124  0.17426  1.0000
  Gd  Gd4       1.0  0.11029  0.51801  0.00683  1.0000
  Gd  Gd5       1.0  0.11112  0.51781  0.50691  1.0000
  Gd  Gd6       1.0  0.61024  0.35093  0.67359  1.0000
