data_image0
_chemical_formula_structural       Gd2Mg
_chemical_formula_sum              "Gd2 Mg1"
_cell_length_a       3.72464
_cell_length_b       3.72479
_cell_length_c       7.08114
_cell_angle_alpha    105.24
_cell_angle_beta     105.324
_cell_angle_gamma    89.985

_space_group_name_H-M_alt    "P 1"
_space_group_IT_number       1

loop_
  _space_group_symop_operation_xyz
  'x, y, z'

loop_
  _atom_site_type_symbol
  _atom_site_label
  _atom_site_symmetry_multiplicity
  _atom_site_fract_x
  _atom_site_fract_y
  _atom_site_fract_z
  _atom_site_occupancy
  Gd  Gd1       1.0  0.58838  0.44633  0.41272  1.0000
  Gd  Gd2       1.0  0.27191  0.13010  0.78032  1.0000
  Mg  Mg1       1.0  0.93016  0.78832  0.09649  1.0000
