data_image0
_chemical_formula_structural       CoFe2Co3Fe
_chemical_formula_sum              "Co4 Fe3"
_cell_length_a       2.82962
_cell_length_b       4.69495
_cell_length_c       6.32128
_cell_angle_alpha    97.924
_cell_angle_beta     90.0325
_cell_angle_gamma    107.548

_space_group_name_H-M_alt    "P 1"
_space_group_IT_number       1

loop_
  _space_group_symop_operation_xyz
  'x, y, z'

loop_
  _atom_site_type_symbol
  _atom_site_label
  _atom_site_symmetry_multiplicity
  _atom_site_fract_x
  _atom_site_fract_y
  _atom_site_fract_z
  _atom_site_occupancy
  Co  Co1       1.0  0.59886  0.91819  0.96208  1.0000
  Fe  Fe1       1.0  0.16963  0.06052  0.67537  1.0000
  Fe  Fe2       1.0  0.02741  0.77586  0.24743  1.0000
  Co  Co2       1.0  0.31605  0.35345  0.10527  1.0000
  Co  Co3       1.0  0.73938  0.19995  0.38977  1.0000
  Co  Co4       1.0  0.45645  0.63498  0.53295  1.0000
  Fe  Fe3       1.0  0.88544  0.49241  0.81952  1.0000
