data_image0
_chemical_formula_structural       Mn2FeMnFe3
_chemical_formula_sum              "Mn3 Fe4"
_cell_length_a       2.43907
_cell_length_b       4.00937
_cell_length_c       8.36558
_cell_angle_alpha    76.1734
_cell_angle_beta     84.9698
_cell_angle_gamma    90.0425

_space_group_name_H-M_alt    "P 1"
_space_group_IT_number       1

loop_
  _space_group_symop_operation_xyz
  'x, y, z'

loop_
  _atom_site_type_symbol
  _atom_site_label
  _atom_site_symmetry_multiplicity
  _atom_site_fract_x
  _atom_site_fract_y
  _atom_site_fract_z
  _atom_site_occupancy
  Mn  Mn1       1.0  0.04348  0.76906  0.01621  1.0000
  Mn  Mn2       1.0  0.18972  0.48285  0.58784  1.0000
  Fe  Fe1       1.0  0.33683  0.19786  0.15986  1.0000
  Mn  Mn3       1.0  0.90327  0.05583  0.44393  1.0000
  Fe  Fe2       1.0  0.75453  0.34071  0.87261  1.0000
  Fe  Fe3       1.0  0.47353  0.91088  0.73038  1.0000
  Fe  Fe4       1.0  0.61783  0.62674  0.30212  1.0000
