data_image0
_chemical_formula_structural       GdO2Gd2OMnTiO4
_chemical_formula_sum              "Gd3 O7 Mn1 Ti1"
_cell_length_a       3.43623
_cell_length_b       6.58214
_cell_length_c       8.32665
_cell_angle_alpha    66.8922
_cell_angle_beta     78.0525
_cell_angle_gamma    74.934

_space_group_name_H-M_alt    "P 1"
_space_group_IT_number       1

loop_
  _space_group_symop_operation_xyz
  'x, y, z'

loop_
  _atom_site_type_symbol
  _atom_site_label
  _atom_site_symmetry_multiplicity
  _atom_site_fract_x
  _atom_site_fract_y
  _atom_site_fract_z
  _atom_site_occupancy
  Gd  Gd1       1.0  0.46929  0.58395  0.46657  1.0000
  O   O1        1.0  0.85620  0.62699  0.65140  1.0000
  O   O2        1.0  0.36816  0.96445  0.29089  1.0000
  Gd  Gd2       1.0  0.96777  0.97690  0.07874  1.0000
  Gd  Gd3       1.0  0.66359  0.97320  0.69131  1.0000
  O   O3        1.0  0.76210  0.33714  0.13019  1.0000
  Mn  Mn1       1.0  0.31351  0.48839  0.87592  1.0000
  Ti  Ti1       1.0  0.21725  0.28975  0.26643  1.0000
  O   O4        1.0  0.15597  0.81139  0.86744  1.0000
  O   O5        1.0  0.12119  0.22422  0.52237  1.0000
  O   O6        1.0  0.05857  0.60720  0.26620  1.0000
  O   O7        1.0  0.46838  0.16557  0.88749  1.0000
