data_image0
_chemical_formula_structural       GdTaGd3N5
_chemical_formula_sum              "Gd4 Ta1 N5"
_cell_length_a       4.95146
_cell_length_b       5.93949
_cell_length_c       5.93536
_cell_angle_alpha    79.9976
_cell_angle_beta     65.3486
_cell_angle_gamma    65.3677

_space_group_name_H-M_alt    "P 1"
_space_group_IT_number       1

loop_
  _space_group_symop_operation_xyz
  'x, y, z'

loop_
  _atom_site_type_symbol
  _atom_site_label
  _atom_site_symmetry_multiplicity
  _atom_site_fract_x
  _atom_site_fract_y
  _atom_site_fract_z
  _atom_site_occupancy
  Gd  Gd1       1.0  0.24641  0.05385  0.37411  1.0000
  Ta  Ta1       1.0  0.00544  0.85472  0.96841  1.0000
  Gd  Gd2       1.0  0.44547  0.26069  0.76894  1.0000
  Gd  Gd3       1.0  0.85141  0.65533  0.56201  1.0000
  Gd  Gd4       1.0  0.65144  0.44926  0.16777  1.0000
  N   N1        1.0  0.59938  0.85507  0.96806  1.0000
  N   N2        1.0  0.77537  0.03474  0.33109  1.0000
  N   N3        1.0  0.95647  0.21754  0.78814  1.0000
  N   N4        1.0  0.31823  0.67428  0.60572  1.0000
  N   N5        1.0  0.13881  0.49283  0.14825  1.0000
