data_image0
_chemical_formula_structural       FeCoFeHCo2Fe2Co
_chemical_formula_sum              "Fe4 Co4 H1"
_cell_length_a       4.98943
_cell_length_b       4.99262
_cell_length_c       4.95753
_cell_angle_alpha    111.575
_cell_angle_beta     111.542
_cell_angle_gamma    105.406

_space_group_name_H-M_alt    "P 1"
_space_group_IT_number       1

loop_
  _space_group_symop_operation_xyz
  'x, y, z'

loop_
  _atom_site_type_symbol
  _atom_site_label
  _atom_site_symmetry_multiplicity
  _atom_site_fract_x
  _atom_site_fract_y
  _atom_site_fract_z
  _atom_site_occupancy
  Fe  Fe1       1.0  0.65100  0.74416  0.07710  1.0000
  Co  Co1       1.0  0.68196  0.27572  0.57676  1.0000
  Fe  Fe2       1.0  0.18134  0.77462  0.57653  1.0000
  H   H1        1.0  0.93320  0.02337  0.07723  1.0000
  Co  Co2       1.0  0.68687  0.77993  0.58800  1.0000
  Co  Co3       1.0  0.17592  0.78038  0.07684  1.0000
  Fe  Fe3       1.0  0.68925  0.26799  0.07687  1.0000
  Fe  Fe4       1.0  0.21265  0.30535  0.07606  1.0000
  Co  Co4       1.0  0.17712  0.26940  0.56507  1.0000
