data_image0
_chemical_formula_structural       HoGdRh2
_chemical_formula_sum              "Ho1 Gd1 Rh2"
_cell_length_a       3.41942
_cell_length_b       3.41984
_cell_length_c       7.06331
_cell_angle_alpha    89.9601
_cell_angle_beta     89.9695
_cell_angle_gamma    89.9567

_space_group_name_H-M_alt    "P 1"
_space_group_IT_number       1

loop_
  _space_group_symop_operation_xyz
  'x, y, z'

loop_
  _atom_site_type_symbol
  _atom_site_label
  _atom_site_symmetry_multiplicity
  _atom_site_fract_x
  _atom_site_fract_y
  _atom_site_fract_z
  _atom_site_occupancy
  Ho  Ho1       1.0  0.89458  0.44953  0.83115  1.0000
  Gd  Gd1       1.0  0.89451  0.44960  0.33108  1.0000
  Rh  Rh1       1.0  0.39435  0.94947  0.07581  1.0000
  Rh  Rh2       1.0  0.39451  0.94976  0.58669  1.0000
