data_image0
_chemical_formula_structural       GdCGdCGd4O2
_chemical_formula_sum              "Gd6 C2 O2"
_cell_length_a       3.55905
_cell_length_b       3.55991
_cell_length_c       18.2635
_cell_angle_alpha    90.0315
_cell_angle_beta     89.9828
_cell_angle_gamma    120

_space_group_name_H-M_alt    "P 1"
_space_group_IT_number       1

loop_
  _space_group_symop_operation_xyz
  'x, y, z'

loop_
  _atom_site_type_symbol
  _atom_site_label
  _atom_site_symmetry_multiplicity
  _atom_site_fract_x
  _atom_site_fract_y
  _atom_site_fract_z
  _atom_site_occupancy
  Gd  Gd1       1.0  0.62251  0.40911  0.32156  1.0000
  C   C1        1.0  0.28901  0.74073  0.73795  1.0000
  Gd  Gd2       1.0  0.95605  0.07662  0.16861  1.0000
  C   C2        1.0  0.28929  0.74278  0.24452  1.0000
  Gd  Gd3       1.0  0.62256  0.40744  0.98808  1.0000
  Gd  Gd4       1.0  0.62234  0.40633  0.81317  1.0000
  Gd  Gd5       1.0  0.95586  0.07347  0.66118  1.0000
  Gd  Gd6       1.0  0.28928  0.74128  0.48116  1.0000
  O   O1        1.0  0.95593  0.07508  0.40541  1.0000
  O   O2        1.0  0.95564  0.07380  0.90648  1.0000
