data_image0
_chemical_formula_structural       Fe4RhFe3Rh
_chemical_formula_sum              "Fe7 Rh2"
_cell_length_a       2.93014
_cell_length_b       6.39362
_cell_length_c       6.43551
_cell_angle_alpha    87.0523
_cell_angle_beta     76.8375
_cell_angle_gamma    76.7719

_space_group_name_H-M_alt    "P 1"
_space_group_IT_number       1

loop_
  _space_group_symop_operation_xyz
  'x, y, z'

loop_
  _atom_site_type_symbol
  _atom_site_label
  _atom_site_symmetry_multiplicity
  _atom_site_fract_x
  _atom_site_fract_y
  _atom_site_fract_z
  _atom_site_occupancy
  Fe  Fe1       1.0  0.14354  0.94101  0.99983  1.0000
  Fe  Fe2       1.0  0.13813  0.28297  0.66766  1.0000
  Fe  Fe3       1.0  0.80111  0.62541  0.00006  1.0000
  Fe  Fe4       1.0  0.13384  0.62507  0.33484  1.0000
  Rh  Rh1       1.0  0.79817  0.28316  0.34841  1.0000
  Fe  Fe5       1.0  0.47585  0.94096  0.33524  1.0000
  Fe  Fe6       1.0  0.80754  0.94480  0.66791  1.0000
  Fe  Fe7       1.0  0.46913  0.62172  0.66748  1.0000
  Rh  Rh2       1.0  0.47834  0.28330  0.98724  1.0000
