data_image0
_chemical_formula_structural       Fe4Co2
_chemical_formula_sum              "Fe4 Co2"
_cell_length_a       4.03593
_cell_length_b       4.03564
_cell_length_c       4.952
_cell_angle_alpha    89.9552
_cell_angle_beta     90.0309
_cell_angle_gamma    120.022

_space_group_name_H-M_alt    "P 1"
_space_group_IT_number       1

loop_
  _space_group_symop_operation_xyz
  'x, y, z'

loop_
  _atom_site_type_symbol
  _atom_site_label
  _atom_site_symmetry_multiplicity
  _atom_site_fract_x
  _atom_site_fract_y
  _atom_site_fract_z
  _atom_site_occupancy
  Fe  Fe1       1.0  0.14251  0.67207  0.91084  1.0000
  Fe  Fe2       1.0  0.80890  0.00534  0.24394  1.0000
  Fe  Fe3       1.0  0.47583  0.33865  0.57654  1.0000
  Fe  Fe4       1.0  0.80917  0.00542  0.74388  1.0000
  Co  Co1       1.0  0.47543  0.33861  0.07816  1.0000
  Co  Co2       1.0  0.14268  0.67222  0.40969  1.0000
