data_image0
_chemical_formula_structural       Gd2MgGd2MgGdCoGdCo
_chemical_formula_sum              "Gd6 Mg2 Co2"
_cell_length_a       6.3703
_cell_length_b       6.36972
_cell_length_c       7.35965
_cell_angle_alpha    90.0653
_cell_angle_beta     90.0518
_cell_angle_gamma    110.518

_space_group_name_H-M_alt    "P 1"
_space_group_IT_number       1

loop_
  _space_group_symop_operation_xyz
  'x, y, z'

loop_
  _atom_site_type_symbol
  _atom_site_label
  _atom_site_symmetry_multiplicity
  _atom_site_fract_x
  _atom_site_fract_y
  _atom_site_fract_z
  _atom_site_occupancy
  Gd  Gd1       1.0  0.10059  0.09436  0.00429  1.0000
  Gd  Gd2       1.0  0.10013  0.59527  0.27138  1.0000
  Mg  Mg1       1.0  0.10103  0.59554  0.77157  1.0000
  Gd  Gd3       1.0  0.60011  0.59322  0.53723  1.0000
  Gd  Gd4       1.0  0.59969  0.59292  0.00481  1.0000
  Mg  Mg2       1.0  0.59926  0.09246  0.77019  1.0000
  Gd  Gd5       1.0  0.10108  0.09496  0.53661  1.0000
  Co  Co1       1.0  0.35079  0.34437  0.27123  1.0000
  Gd  Gd6       1.0  0.60023  0.09292  0.27092  1.0000
  Co  Co2       1.0  0.84976  0.84374  0.27210  1.0000
