data_image0
_chemical_formula_structural       EuOEuOEu3O3
_chemical_formula_sum              "Eu5 O5"
_cell_length_a       3.67595
_cell_length_b       4.9536
_cell_length_c       11.6274
_cell_angle_alpha    90.1256
_cell_angle_beta     90.0707
_cell_angle_gamma    89.9953

_space_group_name_H-M_alt    "P 1"
_space_group_IT_number       1

loop_
  _space_group_symop_operation_xyz
  'x, y, z'

loop_
  _atom_site_type_symbol
  _atom_site_label
  _atom_site_symmetry_multiplicity
  _atom_site_fract_x
  _atom_site_fract_y
  _atom_site_fract_z
  _atom_site_occupancy
  Eu  Eu1       1.0  0.80553  0.16825  0.78041  1.0000
  O   O1        1.0  0.80438  0.66067  0.49750  1.0000
  Eu  Eu2       1.0  0.30400  0.66572  0.61436  1.0000
  O   O2        1.0  0.30457  0.16584  0.60944  1.0000
  Eu  Eu3       1.0  0.80580  0.16348  0.46060  1.0000
  Eu  Eu4       1.0  0.30661  0.66184  0.93237  1.0000
  Eu  Eu5       1.0  0.30724  0.06428  0.12325  1.0000
  O   O3        1.0  0.30606  0.19008  0.91959  1.0000
  O   O4        1.0  0.80778  0.80232  0.06200  1.0000
  O   O5        1.0  0.80596  0.67036  0.77800  1.0000
