data_image0
_chemical_formula_structural       Eu3CoEu
_chemical_formula_sum              "Eu4 Co1"
_cell_length_a       5.64057
_cell_length_b       5.63416
_cell_length_c       5.64412
_cell_angle_alpha    89.9938
_cell_angle_beta     89.9997
_cell_angle_gamma    90.0034

_space_group_name_H-M_alt    "P 1"
_space_group_IT_number       1

loop_
  _space_group_symop_operation_xyz
  'x, y, z'

loop_
  _atom_site_type_symbol
  _atom_site_label
  _atom_site_symmetry_multiplicity
  _atom_site_fract_x
  _atom_site_fract_y
  _atom_site_fract_z
  _atom_site_occupancy
  Eu  Eu1       1.0  0.94563  0.38810  0.53330  1.0000
  Eu  Eu2       1.0  0.44581  0.38815  0.03336  1.0000
  Eu  Eu3       1.0  0.44581  0.88813  0.53347  1.0000
  Co  Co1       1.0  0.44580  0.38812  0.53338  1.0000
  Eu  Eu4       1.0  0.94533  0.88817  0.03294  1.0000
