data_image0
_chemical_formula_structural       Fe5C3Fe4CFe
_chemical_formula_sum              "Fe10 C4"
_cell_length_a       4.461294844738111
_cell_length_b       5.044956724492231
_cell_length_c       6.5836710929870605
_cell_angle_alpha    105.73582758361795
_cell_angle_beta     109.46953095135926
_cell_angle_gamma    90.00992756775909

_space_group_name_H-M_alt    "P 1"
_space_group_IT_number       1

loop_
  _space_group_symop_operation_xyz
  'x, y, z'

loop_
  _atom_site_type_symbol
  _atom_site_label
  _atom_site_symmetry_multiplicity
  _atom_site_fract_x
  _atom_site_fract_y
  _atom_site_fract_z
  _atom_site_occupancy
  Fe  Fe1       1.0  0.7615031593538026  0.26641553578606814  0.9771190882548174  1.0000
  Fe  Fe2       1.0  0.0442880908401395  0.7071240554341616  0.36326992561657334  1.0000
  Fe  Fe3       1.0  0.4689757526659809  0.9419243339909259  0.2087502333378124  1.0000
  Fe  Fe4       1.0  0.7056817402296143  0.8856217867942441  0.5977594845686584  1.0000
  Fe  Fe5       1.0  0.2918746469551773  0.8257589336178764  0.786074220440675  1.0000
  C   C1        1.0  0.30738115223161167  0.04584059834517825  0.5748853082742267  1.0000
  C   C2        1.0  0.1583783768036682  0.10486374714758032  0.999900281537852  1.0000
  C   C3        1.0  0.5185249453906079  0.6025828715795011  0.9962267876195837  1.0000
  Fe  Fe6       1.0  0.172798366210801  0.32587569968173236  0.7877168662640672  1.0000
  Fe  Fe7       1.0  0.8946529635232024  0.7651114463853337  0.974986136341772  1.0000
  Fe  Fe8       1.0  0.4212580316677721  0.4429973072921136  0.21010699867277294  1.0000
  Fe  Fe9       1.0  0.5714365840686882  0.38623055755123376  0.5997606516315909  1.0000
  C   C4        1.0  0.9466963415682111  0.5481472615539339  0.5778639324308585  1.0000
  Fe  Fe10      1.0  0.9989559046884751  0.20847421820923231  0.36524736898478943  1.0000
