data_image0
_chemical_formula_structural       Fe2SrNbOFeOFeOFeO4FeO2ZrO2
_chemical_formula_sum              "Fe6 Sr1 Nb1 O11 Zr1"
_cell_length_a       6.945627866114046
_cell_length_b       6.963628174619168
_cell_length_c       7.76611852645874
_cell_angle_alpha    68.48600498492398
_cell_angle_beta     68.50936008255513
_cell_angle_gamma    62.46707967352905

_space_group_name_H-M_alt    "P 1"
_space_group_IT_number       1

loop_
  _space_group_symop_operation_xyz
  'x, y, z'

loop_
  _atom_site_type_symbol
  _atom_site_label
  _atom_site_symmetry_multiplicity
  _atom_site_fract_x
  _atom_site_fract_y
  _atom_site_fract_z
  _atom_site_occupancy
  Fe  Fe1       1.0  0.9420112970771389  0.4143662444940744  0.4531036323206046  1.0000
  Fe  Fe2       1.0  0.9722399113178419  0.875209927962983  0.45497339970952283  1.0000
  Sr  Sr1       1.0  0.9779314991585821  0.882521212365776  0.9763489369485934  1.0000
  Nb  Nb1       1.0  0.48576241667892733  0.39117732673318556  0.3586525019280427  1.0000
  O   O1        1.0  0.03995705394514384  0.47149080041260505  0.1753372999915341  1.0000
  Fe  Fe3       1.0  0.5539529333055696  0.9570257060527596  0.7635270357835499  1.0000
  O   O2        1.0  0.38728719889931956  0.7973427774022119  0.7399548885079973  1.0000
  Fe  Fe4       1.0  0.5097852947086882  0.8504266744627428  0.45375961084276506  1.0000
  O   O3        1.0  0.17520953721047183  0.5358846187811203  0.46200296294654225  1.0000
  Fe  Fe5       1.0  0.048812560707527514  0.4583435949336805  0.7623663545008655  1.0000
  O   O4        1.0  0.5100384358300715  0.41103210984354444  0.10455662038881411  1.0000
  O   O5        1.0  0.5649883740985043  0.9463009831767683  0.1759219770703131  1.0000
  O   O6        1.0  0.8897481556510098  0.29144072604741494  0.7388923759203934  1.0000
  O   O7        1.0  0.6066352721237115  0.5193173283720836  0.4625391963378397  1.0000
  Fe  Fe6       1.0  0.5583855505185241  0.4652348165880509  0.7985809447764733  1.0000
  O   O8        1.0  0.6326006648064514  0.08064623183884603  0.4631866813213191  1.0000
  O   O9        1.0  0.8814216852280746  0.7838264108608247  0.7437196974619742  1.0000
  Zr  Zr1       1.0  0.2763549676903386  0.18297414514037094  0.1148016970380572  1.0000
  O   O10       1.0  0.09574323889216833  0.0020106124257428222  0.18346734346395366  1.0000
  O   O11       1.0  0.36619839054995756  0.27470639358084237  0.8201730848258529  1.0000
