data_image0
_chemical_formula_structural       FeOFe2OMgO4MgFe3O2
_chemical_formula_sum              "Fe6 O8 Mg2"
_cell_length_a       5.323932414220381
_cell_length_b       5.366392847526211
_cell_length_c       6.1993632316589355
_cell_angle_alpha    72.75747688653585
_cell_angle_beta     89.62081091936865
_cell_angle_gamma    79.64151513377587

_space_group_name_H-M_alt    "P 1"
_space_group_IT_number       1

loop_
  _space_group_symop_operation_xyz
  'x, y, z'

loop_
  _atom_site_type_symbol
  _atom_site_label
  _atom_site_symmetry_multiplicity
  _atom_site_fract_x
  _atom_site_fract_y
  _atom_site_fract_z
  _atom_site_occupancy
  Fe  Fe1       1.0  0.5103675130204495  0.9271136513781553  0.7221394182227667  1.0000
  O   O1        1.0  0.4004284442073648  0.6725190875687744  0.5247253781892391  1.0000
  Fe  Fe2       1.0  0.7611280087830361  0.42770183151938285  0.5956415536428545  1.0000
  Fe  Fe3       1.0  0.2566008270474526  0.4254096749696195  0.3445059649696424  1.0000
  O   O2        1.0  0.38525155125640764  0.6983043553781689  0.027173742112397817  1.0000
  Mg  Mg1       1.0  0.010840489393391745  0.9293097850783956  0.9692623024499971  1.0000
  O   O3        1.0  0.6178914909361567  0.1677046126693927  0.40919741963954964  1.0000
  O   O4        1.0  0.6365047088397565  0.1769976914558093  0.9244516491742676  1.0000
  O   O5        1.0  0.9060502061393247  0.6844893695072868  0.782832979432675  1.0000
  O   O6        1.0  0.13854777832978776  0.15595594010045055  0.16363525463822484  1.0000
  Mg  Mg2       1.0  0.5118225208524706  0.924448669279892  0.22092355783147682  1.0000
  Fe  Fe4       1.0  0.012017914345149445  0.9259292477672459  0.46958699814082067  1.0000
  Fe  Fe5       1.0  0.7616760732984887  0.42671123110388653  0.09546063881253139  1.0000
  Fe  Fe6       1.0  0.26718375087562923  0.42753264320246426  0.8472465272518681  1.0000
  O   O7        1.0  0.8871589295406315  0.6771055454096304  0.26670417220644993  1.0000
  O   O8        1.0  0.12079641913107574  0.1798934338199801  0.664744854059036  1.0000
