data_image0
_chemical_formula_structural       Gd2Fe10
_chemical_formula_sum              "Gd2 Fe10"
_cell_length_a       5.002677148013285
_cell_length_b       5.001541128903949
_cell_length_c       8.451452255249023
_cell_angle_alpha    72.79436529549363
_cell_angle_beta     72.75558502838906
_cell_angle_gamma    59.956008548140105

_space_group_name_H-M_alt    "P 1"
_space_group_IT_number       1

loop_
  _space_group_symop_operation_xyz
  'x, y, z'

loop_
  _atom_site_type_symbol
  _atom_site_label
  _atom_site_symmetry_multiplicity
  _atom_site_fract_x
  _atom_site_fract_y
  _atom_site_fract_z
  _atom_site_occupancy
  Gd  Gd1       1.0  0.36725857855603394  0.9901404978559774  0.24764314258964426  1.0000
  Gd  Gd2       1.0  0.5155865547355003  0.13769234795127358  0.8045068972829761  1.0000
  Fe  Fe1       1.0  0.9566786874834391  0.5782578002295938  0.9864605669311375  1.0000
  Fe  Fe2       1.0  0.037576050021471956  0.659018755823451  0.23844546049910575  1.0000
  Fe  Fe3       1.0  0.4509114037457177  0.5782755013244951  0.9863641861118911  1.0000
  Fe  Fe4       1.0  0.785875200724785  0.9089359046100643  0.49171307654840046  1.0000
  Fe  Fe5       1.0  0.9565719367201029  0.07262101755346957  0.9864740372530447  1.0000
  Fe  Fe6       1.0  0.7040448203771791  0.3268764603450013  0.23775331721898735  1.0000
  Fe  Fe7       1.0  0.7860324982302623  0.4081480506272056  0.49192711743218775  1.0000
  Fe  Fe8       1.0  0.22903549791155886  0.8511450878291889  0.6626982095474951  1.0000
  Fe  Fe9       1.0  0.2867059102632887  0.4082004426757664  0.4916014673724297  1.0000
  Fe  Fe10      1.0  0.8705128421628647  0.4926802220251029  0.736696601130208  1.0000
