data_image0
_chemical_formula_structural       Fe6CoFe
_chemical_formula_sum              "Fe7 Co1"
_cell_length_a       4.031772889066216
_cell_length_b       4.030275229962848
_cell_length_c       6.977455139160156
_cell_angle_alpha    73.20800205724896
_cell_angle_beta     73.2093885012263
_cell_angle_gamma    60.005323204512464

_space_group_name_H-M_alt    "P 1"
_space_group_IT_number       1

loop_
  _space_group_symop_operation_xyz
  'x, y, z'

loop_
  _atom_site_type_symbol
  _atom_site_label
  _atom_site_symmetry_multiplicity
  _atom_site_fract_x
  _atom_site_fract_y
  _atom_site_fract_z
  _atom_site_occupancy
  Fe  Fe1       1.0  0.3926650871313317  0.16136297619540893  0.316758871411578  1.0000
  Fe  Fe2       1.0  0.2678939106142708  0.036832570415237936  0.6916812063936096  1.0000
  Fe  Fe3       1.0  0.7683650242053547  0.537268996473337  0.18960610084744653  1.0000
  Fe  Fe4       1.0  0.14266675633175382  0.9115268592075907  0.06696273358901  1.0000
  Fe  Fe5       1.0  0.893998981548011  0.6622333517955321  0.8141203519397884  1.0000
  Fe  Fe6       1.0  0.6435782312515378  0.41244912031218717  0.5645264981209566  1.0000
  Co  Co1       1.0  0.018117073309618436  0.7870185388764117  0.44035109904283604  1.0000
  Fe  Fe7       1.0  0.518015505002911  0.2867061794500299  0.9408802980297953  1.0000
