data_image0
_chemical_formula_structural       FeCo5
_chemical_formula_sum              "Fe1 Co5"
_cell_length_a       2.7994307875965183
_cell_length_b       4.010303500467272
_cell_length_c       6.183812618255615
_cell_angle_alpha    89.99772805149321
_cell_angle_beta     103.0661407391709
_cell_angle_gamma    89.97553676607298

_space_group_name_H-M_alt    "P 1"
_space_group_IT_number       1

loop_
  _space_group_symop_operation_xyz
  'x, y, z'

loop_
  _atom_site_type_symbol
  _atom_site_label
  _atom_site_symmetry_multiplicity
  _atom_site_fract_x
  _atom_site_fract_y
  _atom_site_fract_z
  _atom_site_occupancy
  Fe  Fe1       1.0  0.8841512809932913  0.5080857883691082  0.9696570046582069  1.0000
  Co  Co1       1.0  0.0526215065827974  0.008004671775076177  0.3056109545844896  1.0000
  Co  Co2       1.0  0.5496444106348535  0.5077703009932681  0.29989823753409  1.0000
  Co  Co3       1.0  0.7153389464470945  0.0080200371972223  0.6322652097989915  1.0000
  Co  Co4       1.0  0.21885083766612218  0.5079860078810886  0.6393781302018006  1.0000
  Co  Co5       1.0  0.3838388621904071  0.008153795166930204  0.9688804157074795  1.0000
