data_image0
_chemical_formula_structural       NiFeHNiH2NiH
_chemical_formula_sum              "Ni3 Fe1 H4"
_cell_length_a       3.729261853118498
_cell_length_b       3.7277415268263128
_cell_length_c       3.7322752475738525
_cell_angle_alpha    90.02241918569064
_cell_angle_beta     89.98048182282592
_cell_angle_gamma    89.96660288215594

_space_group_name_H-M_alt    "P 1"
_space_group_IT_number       1

loop_
  _space_group_symop_operation_xyz
  'x, y, z'

loop_
  _atom_site_type_symbol
  _atom_site_label
  _atom_site_symmetry_multiplicity
  _atom_site_fract_x
  _atom_site_fract_y
  _atom_site_fract_z
  _atom_site_occupancy
  Ni  Ni1       1.0  0.1225540922794948  0.12604233755019922  0.5552162523930421  1.0000
  Fe  Fe1       1.0  0.6223235716880459  0.12606222895569105  0.05532318102957132  1.0000
  H   H1        1.0  0.12244139629311578  0.12614946142012573  0.055183578813786306  1.0000
  Ni  Ni2       1.0  0.1224867485503567  0.6261817211894335  0.05514489485374866  1.0000
  H   H2        1.0  0.6223340639439296  0.12613199775866224  0.5550999056024879  1.0000
  H   H3        1.0  0.1223485394735573  0.6262267243207256  0.5551656482631134  1.0000
  Ni  Ni3       1.0  0.6222240918335262  0.6267049898943075  0.5552032599469674  1.0000
  H   H4        1.0  0.6223810317565692  0.6260976193076297  0.05510251134491949  1.0000
