data_image0
_chemical_formula_structural       Fe4OFOFeOFO2F2OFeF2
_chemical_formula_sum              "Fe6 O6 F6"
_cell_length_a       5.828252714416991
_cell_length_b       5.621454659078653
_cell_length_c       7.676501274108887
_cell_angle_alpha    94.7894200481563
_cell_angle_beta     112.6442367157754
_cell_angle_gamma    106.8419016473059

_space_group_name_H-M_alt    "P 1"
_space_group_IT_number       1

loop_
  _space_group_symop_operation_xyz
  'x, y, z'

loop_
  _atom_site_type_symbol
  _atom_site_label
  _atom_site_symmetry_multiplicity
  _atom_site_fract_x
  _atom_site_fract_y
  _atom_site_fract_z
  _atom_site_occupancy
  Fe  Fe1       1.0  0.8647618890342825  0.4715944829750901  0.7562544348414052  1.0000
  Fe  Fe2       1.0  0.375333904606728  0.1156184590099837  0.9152646654534108  1.0000
  Fe  Fe3       1.0  0.369599222924489  0.7522277836377513  0.6124617455288557  1.0000
  Fe  Fe4       1.0  0.8781209589020802  0.46834993289890625  0.1973427533001188  1.0000
  O   O1        1.0  0.5734876389774932  0.5510970955332362  0.5721770525542108  1.0000
  F   F1        1.0  0.5485672946545677  0.8559803956997775  0.8959656362659729  1.0000
  O   O2        1.0  0.20658513895835998  0.01095317949594682  0.6329559687476416  1.0000
  Fe  Fe5       1.0  0.9313023692902891  0.11017838160082781  0.45420405280902326  1.0000
  O   O3        1.0  0.5842842467685968  0.21029391879349185  0.2217587229198509  1.0000
  F   F2        1.0  0.23840734420283025  0.7219159012135219  0.3136708434149271  1.0000
  O   O4        1.0  0.06937293652477278  0.22420635855834917  0.26954153157858923  1.0000
  O   O5        1.0  0.056787438157828614  0.4718521827175721  0.590425967632517  1.0000
  F   F3        1.0  0.7283306712532838  0.7280599483301373  0.2874763312891059  1.0000
  F   F4        1.0  0.7066279054294919  0.07892655609277684  0.6086952683951081  1.0000
  O   O6        1.0  0.702444792020155  0.38138219734930845  0.9303826696104457  1.0000
  Fe  Fe6       1.0  0.41389697824883565  0.4158667921778767  0.30131843648478024  1.0000
  F   F5        1.0  0.21453824651957645  0.3642792995091721  0.9747028353634207  1.0000
  F   F6        1.0  0.08958202652698681  0.8215923908714862  0.9246910808395402  1.0000
