data_image0
_chemical_formula_structural       CoFe3MnFeMnFe2CFeC3
_chemical_formula_sum              "Co1 Fe7 Mn2 C4"
_cell_length_a       4.639840158880235
_cell_length_b       5.152279283871923
_cell_length_c       6.442262172698975
_cell_angle_alpha    103.53216460199395
_cell_angle_beta     111.06506408907916
_cell_angle_gamma    90.153947871417

_space_group_name_H-M_alt    "P 1"
_space_group_IT_number       1

loop_
  _space_group_symop_operation_xyz
  'x, y, z'

loop_
  _atom_site_type_symbol
  _atom_site_label
  _atom_site_symmetry_multiplicity
  _atom_site_fract_x
  _atom_site_fract_y
  _atom_site_fract_z
  _atom_site_occupancy
  Co  Co1       1.0  0.9929555066035809  0.8091053372633547  0.4581307169963563  1.0000
  Fe  Fe1       1.0  0.4218612307190435  0.5261003968870742  0.6571435933340756  1.0000
  Fe  Fe2       1.0  0.6343989958734972  0.9148868327577606  0.05805911901224686  1.0000
  Fe  Fe3       1.0  0.3946088550345311  0.6100172991252797  0.25036817845456444  1.0000
  Mn  Mn1       1.0  0.7862143516057367  0.42074742987873043  0.05944543710532598  1.0000
  Fe  Fe4       1.0  0.21961869264327116  0.10711559614665432  0.24569499468786496  1.0000
  Mn  Mn2       1.0  0.19911100051176145  0.22984886118568298  0.8703081013439075  1.0000
  Fe  Fe5       1.0  0.8213841911992418  0.30970278287958897  0.45807430144362504  1.0000
  Fe  Fe6       1.0  0.5954687607571685  0.02523538546023968  0.6564239264127942  1.0000
  C   C1        1.0  0.10790293567584078  0.45709520539723625  0.3540903032287909  1.0000
  Fe  Fe7       1.0  0.027899556681474633  0.7308206557760004  0.8685935737040658  1.0000
  C   C2        1.0  0.8079943063855962  0.37929335146912113  0.7623758917681138  1.0000
  C   C3        1.0  0.3177802559353678  0.8785340795735253  0.7668411129666953  1.0000
  C   C4        1.0  0.6068211207723124  0.9587508434176205  0.35187160987086524  1.0000
