# WARNING: CrystaLLM could not post-process this file properly!
data_Nd2Fe14B1
loop_
_atom_type_symbol
_atom_type_electronegativity
_atom_type_radius
_atom_type_ionic_radius
Nd 1.1400 1.8500 1.2765
Fe 1.8300 1.4000 0.8525
B 2.0400 0.8500 0.4100
_symmetry_space_group_name_H-M P42/<unk>
_atom_type_electronegativity
_atom_type_radius
_atom_type_ionic_radius
Nd 1.8200 6.3000 1.3200
B 2.7127
_symmetry_space_group_name_H-M Amm2
_cell_length_a 7.1944
_cell_length_b 8.0595
_cell_length_c 6.5264
_cell_angle_alpha 90.0000
_cell_angle_beta 90.0000
_cell_angle_gamma 90.0000
_symmetry_Int_Tables_number 38
_chemical_formula_structural Nd2Fe7B
_chemical_formula_sum 'Nd4 Fe14 B1'
_cell_volume 377.2040
_cell_formula_units_Z 1
loop_
_symmetry_equiv_pos_site_id
_symmetry_equiv_pos_as_xyz
1 'x, y, z'
loop_
_atom_site_type_symbol
_atom_site_label
_atom_site_symmetry_multiplicity
_atom_site_fract_x
_atom_site_fract_y
_atom_site_fract_z
_atom_site_occupancy
Nd Nd0 2 0.0000 0.5000 0.5069 1
Nd Nd1 2 0.5000 0.5000 0.0027 1
Fe Fe2 8 0.1566 0.2497 0.2515 1
Fe Fe3 4 0.0000 0.1650 0.5024 1
Fe Fe4 4 0.3567 0.0000 0.2876 1
B B5 1 0.0000 0.0000 0.2486 1

