data_Sm1Mn1O3
_symmetry_space_group_name_H-M Pnma
_cell_length_a 5.7062
_cell_length_b 7.3308
_cell_length_c 5.2579
_cell_angle_alpha 90.0000
_cell_angle_beta 90.0000
_cell_angle_gamma 90.0000
_symmetry_Int_Tables_number 62
_chemical_formula_structural SmMnO3
_chemical_formula_sum 'Sm4 Mn4 O12'
_cell_volume 219.9969
_cell_formula_units_Z 4
loop_
 _symmetry_equiv_pos_site_id
 _symmetry_equiv_pos_as_xyz
  1  '-x, y+1/2, -z'
  2  '-x, -y, -z'
  3  '-x+1/2, -y, z+1/2'
  4  'x+1/2, -y+1/2, -z+1/2'
  5  'x, y, z'
  6  'x-1/2, y, -z-1/2'
  7  '-x-1/2, y-1/2, z-1/2'
  8  'x, -y-1/2, z'
loop_
_atom_site_type_symbol
_atom_site_label
_atom_site_symmetry_multiplicity
_atom_site_fract_x
_atom_site_fract_y
_atom_site_fract_z
_atom_site_occupancy
Sm Sm0 4 0.0815 0.2500 0.5212 1
Mn Mn1 4 0.0000 0.0000 0.0000 1
O O2 8 0.1847 0.5524 0.3027 1
O O3 4 0.0320 0.7500 0.8959 1

