data_Nd1Fe1O3
_symmetry_space_group_name_H-M Pnma
_cell_length_a 5.5797
_cell_length_b 7.6114
_cell_length_c 5.3848
_cell_angle_alpha 90.0000
_cell_angle_beta 90.0000
_cell_angle_gamma 90.0000
_symmetry_Int_Tables_number 62
_chemical_formula_structural NdFeO3
_chemical_formula_sum 'Nd12 Fe14 O36'
_cell_volume 230.1469
_cell_formula_units_Z 12
loop_
 _symmetry_equiv_pos_site_id
 _symmetry_equiv_pos_as_xyz
  1  '-x, y+1/2, -z'
  2  '-x, -y, -z'
  3  '-x+1/2, -y, z+1/2'
  4  'x+1/2, -y+1/2, -z+1/2'
  5  'x, y, z'
  6  'x-1/2, y, -z-1/2'
  7  '-x-1/2, y-1/2, z-1/2'
  8  'x, -y-1/2, z'
loop_
_atom_site_type_symbol
_atom_site_label
_atom_site_symmetry_multiplicity
_atom_site_fract_x
_atom_site_fract_y
_atom_site_fract_z
_atom_site_occupancy
Nd Nd0 8 0.1726 0.5021 0.5464 1
Nd Nd1 4 0.0269 0.7500 0.0122 1
Fe Fe2 8 0.1485 0.0018 0.0175 1
Fe Fe3 4 0.0000 0.0000 0.5000 1
O O4 8 0.0237 0.0339 0.2100 1
O O5 8 0.0900 0.5728 0.2892 1
O O6 8 0.2129 0.1188 0.7905 1
O O7 4 0.0688 0.7500 0.6412 1
O O8 4 0.1541 0.2500 0.4037 1
O O9 4 0.2129 0.7500 0.9558 1

