data_Nd1Fe1O3
_symmetry_space_group_name_H-M Pnma
_cell_length_a 5.5896
_cell_length_b 3.6891
_cell_length_c 5.3955
_cell_angle_alpha 90.0000
_cell_angle_beta 90.0000
_cell_angle_gamma 90.0000
_symmetry_Int_Tables_number 62
_chemical_formula_structural NdFeO3
_chemical_formula_sum 'Nd12 Fe12 O36'
_cell_volume 111.0972
_cell_formula_units_Z 12
loop_
 _symmetry_equiv_pos_site_id
 _symmetry_equiv_pos_as_xyz
  1  '-x, y+1/2, -z'
  2  '-x, -y, -z'
  3  '-x+1/2, -y, z+1/2'
  4  'x+1/2, -y+1/2, -z+1/2'
  5  'x, y, z'
  6  'x-1/2, y, -z-1/2'
  7  '-x-1/2, y-1/2, z-1/2'
  8  'x, -y-1/2, z'
loop_
_atom_site_type_symbol
_atom_site_label
_atom_site_symmetry_multiplicity
_atom_site_fract_x
_atom_site_fract_y
_atom_site_fract_z
_atom_site_occupancy
Nd Nd0 4 0.0173 0.7500 0.9963 1
Nd Nd1 4 0.1894 0.2500 0.5153 1
Nd Nd2 4 0.1932 0.7500 0.5161 1
Fe Fe3 8 0.0415 0.0008 0.4136 1
Fe Fe4 4 0.0000 0.0000 0.0000 1
O O5 8 0.0625 0.0303 0.9121 1
O O6 8 0.0992 0.5233 0.2209 1
O O7 8 0.2294 0.0326 0.7830 1
O O8 4 0.0260 0.2500 0.5655 1
O O9 4 0.1544 0.7500 0.9443 1
O O10 4 0.1734 0.2500 0.0511 1

