data_Ba1Co1O3
_symmetry_space_group_name_H-M Pnma
_cell_length_a 5.8203
_cell_length_b 4.8900
_cell_length_c 5.1314
_cell_angle_alpha 90.0000
_cell_angle_beta 90.0000
_cell_angle_gamma 90.0000
_symmetry_Int_Tables_number 62
_chemical_formula_structural BaCoO3
_chemical_formula_sum 'Ba12 Co12 O18'
_cell_volume 147.4277
_cell_formula_units_Z 12
loop_
 _symmetry_equiv_pos_site_id
 _symmetry_equiv_pos_as_xyz
  1  '-x, y+1/2, -z'
  2  '-x, -y, -z'
  3  '-x+1/2, -y, z+1/2'
  4  'x+1/2, -y+1/2, -z+1/2'
  5  'x, y, z'
  6  'x-1/2, y, -z-1/2'
  7  '-x-1/2, y-1/2, z-1/2'
  8  'x, -y-1/2, z'
loop_
_atom_site_type_symbol
_atom_site_label
_atom_site_symmetry_multiplicity
_atom_site_fract_x
_atom_site_fract_y
_atom_site_fract_z
_atom_site_occupancy
Ba Ba0 4 0.0029 0.7500 0.4999 1
Ba Ba1 4 0.1666 0.7500 0.0029 1
Ba Ba2 4 0.1667 0.2500 0.9956 1
Co Co3 8 0.1668 0.5001 0.4974 1
Co Co4 4 0.0000 0.0000 0.0000 1
O O5 8 0.0802 0.0047 0.7412 1
O O6 8 0.0816 0.5023 0.2539 1
O O7 4 0.2414 0.2500 0.4943 1

