data_Pr1Cr1O3
_symmetry_space_group_name_H-M Pnma
_cell_length_a 5.5757
_cell_length_b 7.6137
_cell_length_c 5.3745
_cell_angle_alpha 90.0000
_cell_angle_beta 90.0000
_cell_angle_gamma 90.0000
_symmetry_Int_Tables_number 62
_chemical_formula_structural PrCrO3
_chemical_formula_sum 'Pr12 Cr12 O36'
_cell_volume 229.0435
_cell_formula_units_Z 12
loop_
 _symmetry_equiv_pos_site_id
 _symmetry_equiv_pos_as_xyz
  1  '-x, y+1/2, -z'
  2  '-x, -y, -z'
  3  '-x+1/2, -y, z+1/2'
  4  'x+1/2, -y+1/2, -z+1/2'
  5  'x, y, z'
  6  'x-1/2, y, -z-1/2'
  7  '-x-1/2, y-1/2, z-1/2'
  8  'x, -y-1/2, z'
loop_
_atom_site_type_symbol
_atom_site_label
_atom_site_symmetry_multiplicity
_atom_site_fract_x
_atom_site_fract_y
_atom_site_fract_z
_atom_site_occupancy
Pr Pr0 8 0.1937 0.5568 0.9423 1
Pr Pr1 4 0.0221 0.7500 0.4074 1
Cr Cr2 8 0.0318 0.5989 0.9983 1
Cr Cr3 4 0.0650 0.2500 0.3961 1
O O4 8 0.0187 0.1226 0.2968 1
O O5 8 0.1310 0.0746 0.7784 1
O O6 8 0.1768 0.1257 0.1474 1
O O7 4 0.0948 0.2500 0.6591 1
O O8 4 0.1223 0.7500 0.0725 1
O O9 4 0.2121 0.7500 0.4869 1

