data_Ba1Ni1O3
_symmetry_space_group_name_H-M Pnma
_cell_length_a 5.5244
_cell_length_b 3.9043
_cell_length_c 5.5989
_cell_angle_alpha 90.0000
_cell_angle_beta 90.0000
_cell_angle_gamma 90.0000
_symmetry_Int_Tables_number 62
_chemical_formula_structural BaNiO3
_chemical_formula_sum 'Ba12 Ni12 O36'
_cell_volume 120.5238
_cell_formula_units_Z 12
loop_
 _symmetry_equiv_pos_site_id
 _symmetry_equiv_pos_as_xyz
  1  '-x, y+1/2, -z'
  2  '-x, -y, -z'
  3  '-x+1/2, -y, z+1/2'
  4  'x+1/2, -y+1/2, -z+1/2'
  5  'x, y, z'
  6  'x-1/2, y, -z-1/2'
  7  '-x-1/2, y-1/2, z-1/2'
  8  'x, -y-1/2, z'
loop_
_atom_site_type_symbol
_atom_site_label
_atom_site_symmetry_multiplicity
_atom_site_fract_x
_atom_site_fract_y
_atom_site_fract_z
_atom_site_occupancy
Ba Ba0 4 0.0467 0.7500 0.1700 1
Ba Ba1 4 0.1561 0.2500 0.4911 1
Ba Ba2 4 0.1773 0.7500 0.6031 1
Ni Ni3 4 0.0000 0.0000 0.0000 1
Ni Ni4 4 0.0861 0.7500 0.8274 1
Ni Ni5 4 0.2443 0.2500 0.8212 1
O O6 8 0.0555 0.0055 0.6841 1
O O7 8 0.1179 0.5060 0.9352 1
O O8 4 0.0432 0.2500 0.1549 1
O O9 4 0.1108 0.2500 0.9829 1
O O10 4 0.1922 0.7500 0.2573 1
O O11 4 0.2385 0.7500 0.9381 1
O O12 4 0.2449 0.2500 0.7215 1

