data_Ba1Cr1O3
_symmetry_space_group_name_H-M Pnma
_cell_length_a 5.1177
_cell_length_b 5.3662
_cell_length_c 6.2679
_cell_angle_alpha 90.0000
_cell_angle_beta 90.0000
_cell_angle_gamma 90.0000
_symmetry_Int_Tables_number 62
_chemical_formula_structural BaCrO3
_chemical_formula_sum 'Ba12 Cr12 O36'
_cell_volume 172.1708
_cell_formula_units_Z 12
loop_
 _symmetry_equiv_pos_site_id
 _symmetry_equiv_pos_as_xyz
  1  '-x, y+1/2, -z'
  2  '-x, -y, -z'
  3  '-x+1/2, -y, z+1/2'
  4  'x+1/2, -y+1/2, -z+1/2'
  5  'x, y, z'
  6  'x-1/2, y, -z-1/2'
  7  '-x-1/2, y-1/2, z-1/2'
  8  'x, -y-1/2, z'
loop_
_atom_site_type_symbol
_atom_site_label
_atom_site_symmetry_multiplicity
_atom_site_fract_x
_atom_site_fract_y
_atom_site_fract_z
_atom_site_occupancy
Ba Ba0 4 0.0176 0.2500 0.9996 1
Ba Ba1 4 0.0176 0.2500 0.5002 1
Ba Ba2 4 0.1827 0.7500 0.7595 1
Cr Cr3 8 0.1660 0.0003 0.2997 1
Cr Cr4 4 0.1616 0.7500 0.2197 1
O O5 8 0.0679 0.0045 0.2205 1
O O6 8 0.1997 0.5013 0.4979 1
O O7 4 0.0000 0.0000 0.7169 1
O O8 4 0.0408 0.7500 0.4838 1
O O9 4 0.1683 0.2500 0.7736 1
O O10 4 0.1921 0.7500 0.2336 1
O O11 4 0.2402 0.2500 0.2207 1

