data_La1Mn1O3
_symmetry_space_group_name_H-M Pnma
_cell_length_a 5.5490
_cell_length_b 7.6839
_cell_length_c 5.4134
_cell_angle_alpha 90.0000
_cell_angle_beta 90.0000
_cell_angle_gamma 90.0000
_symmetry_Int_Tables_number 62
_chemical_formula_structural LaMnO3
_chemical_formula_sum 'La12 Mn12 O36'
_cell_volume 231.4749
_cell_formula_units_Z 12
loop_
 _symmetry_equiv_pos_site_id
 _symmetry_equiv_pos_as_xyz
  1  '-x, y+1/2, -z'
  2  '-x, -y, -z'
  3  '-x+1/2, -y, z+1/2'
  4  'x+1/2, -y+1/2, -z+1/2'
  5  'x, y, z'
  6  'x-1/2, y, -z-1/2'
  7  '-x-1/2, y-1/2, z-1/2'
  8  'x, -y-1/2, z'
loop_
_atom_site_type_symbol
_atom_site_label
_atom_site_symmetry_multiplicity
_atom_site_fract_x
_atom_site_fract_y
_atom_site_fract_z
_atom_site_occupancy
La La0 8 0.2400 0.5064 0.2498 1
La La1 4 0.0039 0.7500 0.7616 1
Mn Mn2 4 0.0000 0.0000 0.0000 1
Mn Mn3 4 0.0000 0.0000 0.5000 1
Mn Mn4 4 0.2489 0.7500 0.2520 1
O O5 8 0.0125 0.0319 0.7701 1
O O6 8 0.0161 0.2114 0.5456 1
O O7 8 0.2390 0.5642 0.5443 1
O O8 4 0.2396 0.7500 0.9351 1
O O9 4 0.2498 0.7500 0.5506 1
O O10 4 0.2500 0.2500 0.5975 1

