data_Nd1Ni1O3
_symmetry_space_group_name_H-M Pnma
_cell_length_a 5.4072
_cell_length_b 7.4706
_cell_length_c 5.2214
_cell_angle_alpha 90.0000
_cell_angle_beta 90.0000
_cell_angle_gamma 90.0000
_symmetry_Int_Tables_number 62
_chemical_formula_structural NdNiO3
_chemical_formula_sum 'Nd4 Ni4 O12'
_cell_volume 210.5654
_cell_formula_units_Z 4
loop_
 _symmetry_equiv_pos_site_id
 _symmetry_equiv_pos_as_xyz
  1  '-x, y+1/2, -z'
  2  '-x, -y, -z'
  3  '-x+1/2, -y, z+1/2'
  4  'x+1/2, -y+1/2, -z+1/2'
  5  'x, y, z'
  6  'x-1/2, y, -z-1/2'
  7  '-x-1/2, y-1/2, z-1/2'
  8  'x, -y-1/2, z'
loop_
_atom_site_type_symbol
_atom_site_label
_atom_site_symmetry_multiplicity
_atom_site_fract_x
_atom_site_fract_y
_atom_site_fract_z
_atom_site_occupancy
Nd Nd0 4 0.0000 0.0000 0.0000 1
Ni Ni1 4 0.0248 0.7500 0.4509 1
O O2 8 0.1428 0.6025 0.6337 1
O O3 4 0.2017 0.7500 0.1744 1

