data_Pr1Cr1O3
_symmetry_space_group_name_H-M Pnma
_cell_length_a 5.6450
_cell_length_b 7.6195
_cell_length_c 5.3326
_cell_angle_alpha 90.0000
_cell_angle_beta 90.0000
_cell_angle_gamma 90.0000
_symmetry_Int_Tables_number 62
_chemical_formula_structural PrCrO3
_chemical_formula_sum 'Pr4 Cr4 O12'
_cell_volume 230.4015
_cell_formula_units_Z 4
loop_
 _symmetry_equiv_pos_site_id
 _symmetry_equiv_pos_as_xyz
  1  '-x, y+1/2, -z'
  2  '-x, -y, -z'
  3  '-x+1/2, -y, z+1/2'
  4  'x+1/2, -y+1/2, -z+1/2'
  5  'x, y, z'
  6  'x-1/2, y, -z-1/2'
  7  '-x-1/2, y-1/2, z-1/2'
  8  'x, -y-1/2, z'
loop_
_atom_site_type_symbol
_atom_site_label
_atom_site_symmetry_multiplicity
_atom_site_fract_x
_atom_site_fract_y
_atom_site_fract_z
_atom_site_occupancy
Pr Pr0 4 0.0617 0.2500 0.9873 1
Cr Cr1 4 0.0000 0.0000 0.5000 1
O O2 8 0.2032 0.5504 0.1979 1
O O3 4 0.0256 0.7500 0.5967 1

