data_La1Fe1O3
_symmetry_space_group_name_H-M Pnma
_cell_length_a 5.6305
_cell_length_b 3.8355
_cell_length_c 5.4135
_cell_angle_alpha 90.0000
_cell_angle_beta 90.0000
_cell_angle_gamma 90.0000
_symmetry_Int_Tables_number 62
_chemical_formula_structural LaFeO3
_chemical_formula_sum 'La12 Fe12 O36'
_cell_volume 116.9037
_cell_formula_units_Z 12
loop_
 _symmetry_equiv_pos_site_id
 _symmetry_equiv_pos_as_xyz
  1  '-x, y+1/2, -z'
  2  '-x, -y, -z'
  3  '-x+1/2, -y, z+1/2'
  4  'x+1/2, -y+1/2, -z+1/2'
  5  'x, y, z'
  6  'x-1/2, y, -z-1/2'
  7  '-x-1/2, y-1/2, z-1/2'
  8  'x, -y-1/2, z'
loop_
_atom_site_type_symbol
_atom_site_label
_atom_site_symmetry_multiplicity
_atom_site_fract_x
_atom_site_fract_y
_atom_site_fract_z
_atom_site_occupancy
La La0 4 0.0028 0.2500 0.4973 1
La La1 4 0.1394 0.7500 0.9994 1
La La2 4 0.1768 0.2500 0.0087 1
Fe Fe3 8 0.1674 0.0008 0.5041 1
Fe Fe4 4 0.0000 0.0000 0.0000 1
O O5 8 0.0673 0.0156 0.2107 1
O O6 8 0.0982 0.0095 0.7927 1
O O7 8 0.2347 0.5004 0.6873 1
O O8 4 0.0046 0.7500 0.4869 1
O O9 4 0.1578 0.7500 0.0940 1
O O10 4 0.1675 0.2500 0.3877 1

