data_Sm1Cr1O3
_symmetry_space_group_name_H-M Pnma
_cell_length_a 5.6264
_cell_length_b 7.5554
_cell_length_c 5.2851
_cell_angle_alpha 90.0000
_cell_angle_beta 90.0000
_cell_angle_gamma 90.0000
_symmetry_Int_Tables_number 62
_chemical_formula_structural SmCrO3
_chemical_formula_sum 'Sm12 Cr12 O36'
_cell_volume 224.7248
_cell_formula_units_Z 12
loop_
 _symmetry_equiv_pos_site_id
 _symmetry_equiv_pos_as_xyz
  1  '-x, y+1/2, -z'
  2  '-x, -y, -z'
  3  '-x+1/2, -y, z+1/2'
  4  'x+1/2, -y+1/2, -z+1/2'
  5  'x, y, z'
  6  'x-1/2, y, -z-1/2'
  7  '-x-1/2, y-1/2, z-1/2'
  8  'x, -y-1/2, z'
loop_
_atom_site_type_symbol
_atom_site_label
_atom_site_symmetry_multiplicity
_atom_site_fract_x
_atom_site_fract_y
_atom_site_fract_z
_atom_site_occupancy
Sm Sm0 8 0.1768 0.0063 0.5331 1
Sm Sm1 4 0.0233 0.2500 0.9951 1
Cr Cr2 8 0.0037 0.5206 0.5124 1
Cr Cr3 4 0.0000 0.0000 0.0000 1
O O4 8 0.0642 0.5268 0.2161 1
O O5 8 0.0914 0.0904 0.8402 1
O O6 8 0.1721 0.6251 0.5564 1
O O7 4 0.0986 0.2500 0.3680 1
O O8 4 0.1570 0.7500 0.9292 1
O O9 4 0.1833 0.2500 0.6735 1

