data_Sm1Cr1O3
_symmetry_space_group_name_H-M Pnma
_cell_length_a 5.6209
_cell_length_b 7.5320
_cell_length_c 5.2507
_cell_angle_alpha 90.0000
_cell_angle_beta 90.0000
_cell_angle_gamma 90.0000
_symmetry_Int_Tables_number 62
_chemical_formula_structural SmCrO3
_chemical_formula_sum 'Sm12 Cr12 O36'
_cell_volume 221.4177
_cell_formula_units_Z 12
loop_
 _symmetry_equiv_pos_site_id
 _symmetry_equiv_pos_as_xyz
  1  '-x, y+1/2, -z'
  2  '-x, -y, -z'
  3  '-x+1/2, -y, z+1/2'
  4  'x+1/2, -y+1/2, -z+1/2'
  5  'x, y, z'
  6  'x-1/2, y, -z-1/2'
  7  '-x-1/2, y-1/2, z-1/2'
  8  'x, -y-1/2, z'
loop_
_atom_site_type_symbol
_atom_site_label
_atom_site_symmetry_multiplicity
_atom_site_fract_x
_atom_site_fract_y
_atom_site_fract_z
_atom_site_occupancy
Sm Sm0 8 0.1967 0.5246 0.0485 1
Sm Sm1 4 0.0265 0.7500 0.5919 1
Cr Cr2 8 0.0258 0.0951 0.5084 1
Cr Cr3 4 0.0602 0.2500 0.0747 1
O O4 8 0.0540 0.1290 0.8412 1
O O5 8 0.1034 0.5729 0.7443 1
O O6 8 0.1664 0.1209 0.3857 1
O O7 8 0.2275 0.6126 0.3105 1
O O8 4 0.0685 0.7500 0.1473 1

