data_Nd1Ni1O3
_symmetry_space_group_name_H-M Pnma
_cell_length_a 5.4189
_cell_length_b 3.6849
_cell_length_c 5.3033
_cell_angle_alpha 90.0000
_cell_angle_beta 90.0000
_cell_angle_gamma 90.0000
_symmetry_Int_Tables_number 62
_chemical_formula_structural NdNiO3
_chemical_formula_sum 'Nd12 Ni12 O36'
_cell_volume 106.2239
_cell_formula_units_Z 12
loop_
 _symmetry_equiv_pos_site_id
 _symmetry_equiv_pos_as_xyz
  1  '-x, y+1/2, -z'
  2  '-x, -y, -z'
  3  '-x+1/2, -y, z+1/2'
  4  'x+1/2, -y+1/2, -z+1/2'
  5  'x, y, z'
  6  'x-1/2, y, -z-1/2'
  7  '-x-1/2, y-1/2, z-1/2'
  8  'x, -y-1/2, z'
loop_
_atom_site_type_symbol
_atom_site_label
_atom_site_symmetry_multiplicity
_atom_site_fract_x
_atom_site_fract_y
_atom_site_fract_z
_atom_site_occupancy
Nd Nd0 4 0.0396 0.2500 0.1371 1
Nd Nd1 4 0.1096 0.7500 0.6426 1
Nd Nd2 4 0.2312 0.2500 0.8844 1
Ni Ni3 4 0.0108 0.2500 0.6404 1
Ni Ni4 4 0.1833 0.7500 0.1124 1
Ni Ni5 4 0.1971 0.2500 0.3897 1
O O6 4 0.0587 0.2500 0.3664 1
O O7 4 0.0621 0.2500 0.9451 1
O O8 4 0.0652 0.7500 0.1579 1
O O9 4 0.0869 0.7500 0.4679 1
O O10 4 0.1618 0.2500 0.7490 1
O O11 4 0.1899 0.2500 0.0679 1
O O12 4 0.1994 0.2500 0.2211 1
O O13 4 0.2251 0.2500 0.5695 1
O O14 4 0.2344 0.7500 0.8836 1

