data_Nd1Co1O3
_symmetry_space_group_name_H-M Pnma
_cell_length_a 5.4644
_cell_length_b 3.6373
_cell_length_c 5.4093
_cell_angle_alpha 90.0000
_cell_angle_beta 90.0000
_cell_angle_gamma 90.0000
_symmetry_Int_Tables_number 62
_chemical_formula_structural NdCoO3
_chemical_formula_sum 'Nd12 Co14 O36'
_cell_volume 107.8898
_cell_formula_units_Z 12
loop_
 _symmetry_equiv_pos_site_id
 _symmetry_equiv_pos_as_xyz
  1  '-x, y+1/2, -z'
  2  '-x, -y, -z'
  3  '-x+1/2, -y, z+1/2'
  4  'x+1/2, -y+1/2, -z+1/2'
  5  'x, y, z'
  6  'x-1/2, y, -z-1/2'
  7  '-x-1/2, y-1/2, z-1/2'
  8  'x, -y-1/2, z'
loop_
_atom_site_type_symbol
_atom_site_label
_atom_site_symmetry_multiplicity
_atom_site_fract_x
_atom_site_fract_y
_atom_site_fract_z
_atom_site_occupancy
Nd Nd0 4 0.0130 0.2500 0.4946 1
Nd Nd1 4 0.1839 0.7500 0.9968 1
Nd Nd2 4 0.1866 0.2500 0.0142 1
Co Co3 4 0.0000 0.0000 0.0000 1
Co Co4 4 0.0927 0.7500 0.5037 1
Co Co5 4 0.0971 0.2500 0.5040 1
Co Co6 4 0.1783 0.7500 0.5003 1
O O7 4 0.0261 0.2500 0.0469 1
O O8 4 0.0341 0.7500 0.7541 1
O O9 4 0.0598 0.7500 0.2642 1
O O10 4 0.1005 0.2500 0.7611 1
O O11 4 0.1260 0.7500 0.9641 1
O O12 4 0.1856 0.2500 0.2607 1
O O13 4 0.1922 0.2500 0.5133 1
O O14 4 0.2060 0.7500 0.5447 1
O O15 4 0.2089 0.7500 0.2198 1

