data_Sm1Mn1O3
_symmetry_space_group_name_H-M Pnma
_cell_length_a 5.8770
_cell_length_b 3.6533
_cell_length_c 5.7819
_cell_angle_alpha 90.0000
_cell_angle_beta 90.0000
_cell_angle_gamma 90.0000
_symmetry_Int_Tables_number 62
_chemical_formula_structural SmMnO3
_chemical_formula_sum 'Sm12 Mn12 O36'
_cell_volume 125.3617
_cell_formula_units_Z 12
loop_
 _symmetry_equiv_pos_site_id
 _symmetry_equiv_pos_as_xyz
  1  '-x, y+1/2, -z'
  2  '-x, -y, -z'
  3  '-x+1/2, -y, z+1/2'
  4  'x+1/2, -y+1/2, -z+1/2'
  5  'x, y, z'
  6  'x-1/2, y, -z-1/2'
  7  '-x-1/2, y-1/2, z-1/2'
  8  'x, -y-1/2, z'
loop_
_atom_site_type_symbol
_atom_site_label
_atom_site_symmetry_multiplicity
_atom_site_fract_x
_atom_site_fract_y
_atom_site_fract_z
_atom_site_occupancy
Sm Sm0 4 0.0025 0.7500 0.1942 1
Sm Sm1 4 0.1651 0.2500 0.4714 1
Sm Sm2 4 0.1717 0.7500 0.8752 1
Mn Mn3 8 0.1647 0.5023 0.5664 1
Mn Mn4 4 0.1699 0.2500 0.9538 1
O O5 8 0.0776 0.5302 0.7071 1
O O6 8 0.0926 0.5223 0.2108 1
O O7 8 0.2347 0.0005 0.0907 1
O O8 4 0.0144 0.2500 0.9857 1
O O9 4 0.1555 0.7500 0.4386 1
O O10 4 0.1787 0.2500 0.8884 1

