data_Pr1Fe1O3
_symmetry_space_group_name_H-M Pnma
_cell_length_a 5.6776
_cell_length_b 7.6439
_cell_length_c 5.3568
_cell_angle_alpha 90.0000
_cell_angle_beta 90.0000
_cell_angle_gamma 90.0000
_symmetry_Int_Tables_number 62
_chemical_formula_structural PrFeO3
_chemical_formula_sum 'Pr12 Fe12 O36'
_cell_volume 233.4677
_cell_formula_units_Z 12
loop_
 _symmetry_equiv_pos_site_id
 _symmetry_equiv_pos_as_xyz
  1  '-x, y+1/2, -z'
  2  '-x, -y, -z'
  3  '-x+1/2, -y, z+1/2'
  4  'x+1/2, -y+1/2, -z+1/2'
  5  'x, y, z'
  6  'x-1/2, y, -z-1/2'
  7  '-x-1/2, y-1/2, z-1/2'
  8  'x, -y-1/2, z'
loop_
_atom_site_type_symbol
_atom_site_label
_atom_site_symmetry_multiplicity
_atom_site_fract_x
_atom_site_fract_y
_atom_site_fract_z
_atom_site_occupancy
Pr Pr0 8 0.1635 0.5080 0.4308 1
Pr Pr1 4 0.0156 0.7500 0.0097 1
Fe Fe2 8 0.1482 0.0001 0.9675 1
Fe Fe3 4 0.0000 0.0000 0.5000 1
O O4 8 0.0187 0.0435 0.2216 1
O O5 8 0.0753 0.1998 0.6876 1
O O6 8 0.2116 0.5431 0.7898 1
O O7 4 0.0999 0.7500 0.6036 1
O O8 4 0.2107 0.2500 0.0846 1
O O9 4 0.2285 0.7500 0.1059 1

