data_La1Fe1O3
_symmetry_space_group_name_H-M Pnma
_cell_length_a 5.5317
_cell_length_b 3.8081
_cell_length_c 5.3809
_cell_angle_alpha 90.0000
_cell_angle_beta 90.0000
_cell_angle_gamma 90.0000
_symmetry_Int_Tables_number 62
_chemical_formula_structural LaFeO3
_chemical_formula_sum 'La12 Fe12 O36'
_cell_volume 113.3223
_cell_formula_units_Z 12
loop_
 _symmetry_equiv_pos_site_id
 _symmetry_equiv_pos_as_xyz
  1  '-x, y+1/2, -z'
  2  '-x, -y, -z'
  3  '-x+1/2, -y, z+1/2'
  4  'x+1/2, -y+1/2, -z+1/2'
  5  'x, y, z'
  6  'x-1/2, y, -z-1/2'
  7  '-x-1/2, y-1/2, z-1/2'
  8  'x, -y-1/2, z'
loop_
_atom_site_type_symbol
_atom_site_label
_atom_site_symmetry_multiplicity
_atom_site_fract_x
_atom_site_fract_y
_atom_site_fract_z
_atom_site_occupancy
La La0 4 0.0150 0.2500 0.4998 1
La La1 4 0.1877 0.7500 0.9992 1
La La2 4 0.1889 0.2500 0.0102 1
Fe Fe3 4 0.1464 0.7500 0.5010 1
Fe Fe4 4 0.1465 0.2500 0.5010 1
Fe Fe5 4 0.1466 0.7500 0.7523 1
O O6 4 0.0157 0.7500 0.9970 1
O O7 4 0.0352 0.2500 0.7740 1
O O8 4 0.0610 0.2500 0.2833 1
O O9 4 0.0984 0.7500 0.5048 1
O O10 4 0.1566 0.2500 0.7186 1
O O11 4 0.1646 0.7500 0.2184 1
O O12 4 0.2338 0.2500 0.2811 1
O O13 4 0.2484 0.7500 0.7909 1

