data_Sm1Ni1O3
_symmetry_space_group_name_H-M Pnma
_cell_length_a 5.5041
_cell_length_b 3.5845
_cell_length_c 5.3296
_cell_angle_alpha 90.0000
_cell_angle_beta 90.0000
_cell_angle_gamma 90.0000
_symmetry_Int_Tables_number 62
_chemical_formula_structural SmNiO3
_chemical_formula_sum 'Sm12 Ni12 O36'
_cell_volume 105.0054
_cell_formula_units_Z 12
loop_
 _symmetry_equiv_pos_site_id
 _symmetry_equiv_pos_as_xyz
  1  '-x, y+1/2, -z'
  2  '-x, -y, -z'
  3  '-x+1/2, -y, z+1/2'
  4  'x+1/2, -y+1/2, -z+1/2'
  5  'x, y, z'
  6  'x-1/2, y, -z-1/2'
  7  '-x-1/2, y-1/2, z-1/2'
  8  'x, -y-1/2, z'
loop_
_atom_site_type_symbol
_atom_site_label
_atom_site_symmetry_multiplicity
_atom_site_fract_x
_atom_site_fract_y
_atom_site_fract_z
_atom_site_occupancy
Sm Sm0 4 0.0329 0.2500 0.5094 1
Sm Sm1 4 0.2105 0.7500 0.9895 1
Sm Sm2 4 0.2188 0.2500 0.9940 1
Ni Ni3 4 0.0670 0.7500 0.0149 1
Ni Ni4 4 0.0835 0.2500 0.0121 1
Ni Ni5 4 0.1426 0.7500 0.5108 1
O O6 8 0.0649 0.0085 0.7885 1
O O7 8 0.1769 0.5086 0.2119 1
O O8 4 0.0633 0.2500 0.2784 1
O O9 4 0.1003 0.7500 0.3994 1
O O10 4 0.1275 0.2500 0.7084 1
O O11 4 0.2202 0.7500 0.5956 1
O O12 4 0.2256 0.7500 0.9084 1

