data_Pr1Cr1O3
_symmetry_space_group_name_H-M Pnma
_cell_length_a 5.5537
_cell_length_b 7.6604
_cell_length_c 5.3604
_cell_angle_alpha 90.0000
_cell_angle_beta 90.0000
_cell_angle_gamma 90.0000
_symmetry_Int_Tables_number 62
_chemical_formula_structural PrCrO3
_chemical_formula_sum 'Pr12 Cr12 O36'
_cell_volume 228.7766
_cell_formula_units_Z 12
loop_
 _symmetry_equiv_pos_site_id
 _symmetry_equiv_pos_as_xyz
  1  '-x, y+1/2, -z'
  2  '-x, -y, -z'
  3  '-x+1/2, -y, z+1/2'
  4  'x+1/2, -y+1/2, -z+1/2'
  5  'x, y, z'
  6  'x-1/2, y, -z-1/2'
  7  '-x-1/2, y-1/2, z-1/2'
  8  'x, -y-1/2, z'
loop_
_atom_site_type_symbol
_atom_site_label
_atom_site_symmetry_multiplicity
_atom_site_fract_x
_atom_site_fract_y
_atom_site_fract_z
_atom_site_occupancy
Pr Pr0 8 0.2472 0.0329 0.5424 1
Pr Pr1 4 0.0170 0.2500 0.9889 1
Cr Cr2 8 0.0079 0.6704 0.5146 1
Cr Cr3 4 0.0000 0.0000 0.0000 1
O O4 8 0.0324 0.5790 0.2218 1
O O5 8 0.0486 0.1159 0.2096 1
O O6 8 0.1980 0.5343 0.7436 1
O O7 8 0.2011 0.1181 0.8134 1
O O8 4 0.0964 0.7500 0.4388 1

