data_Sr1Mn1O3
_symmetry_space_group_name_H-M Pnma
_cell_length_a 5.9622
_cell_length_b 3.5173
_cell_length_c 5.9717
_cell_angle_alpha 90.0000
_cell_angle_beta 90.0000
_cell_angle_gamma 90.0000
_symmetry_Int_Tables_number 62
_chemical_formula_structural SrMnO3
_chemical_formula_sum 'Sr12 Mn12 O36'
_cell_volume 125.9210
_cell_formula_units_Z 12
loop_
 _symmetry_equiv_pos_site_id
 _symmetry_equiv_pos_as_xyz
  1  '-x, y+1/2, -z'
  2  '-x, -y, -z'
  3  '-x+1/2, -y, z+1/2'
  4  'x+1/2, -y+1/2, -z+1/2'
  5  'x, y, z'
  6  'x-1/2, y, -z-1/2'
  7  '-x-1/2, y-1/2, z-1/2'
  8  'x, -y-1/2, z'
loop_
_atom_site_type_symbol
_atom_site_label
_atom_site_symmetry_multiplicity
_atom_site_fract_x
_atom_site_fract_y
_atom_site_fract_z
_atom_site_occupancy
Sr Sr0 4 0.0532 0.2500 0.2050 1
Sr Sr1 4 0.1940 0.2500 0.5619 1
Sr Sr2 4 0.2268 0.7500 0.8892 1
Mn Mn3 4 0.0115 0.2500 0.8940 1
Mn Mn4 4 0.0797 0.7500 0.5743 1
Mn Mn5 4 0.1143 0.2500 0.8720 1
O O6 4 0.0102 0.2500 0.6934 1
O O7 4 0.0693 0.7500 0.0581 1
O O8 4 0.0780 0.2500 0.5398 1
O O9 4 0.0808 0.7500 0.8422 1
O O10 4 0.1125 0.7500 0.4012 1
O O11 4 0.1130 0.2500 0.0193 1
O O12 4 0.1892 0.2500 0.3556 1
O O13 4 0.2322 0.7500 0.2025 1
O O14 4 0.2444 0.7500 0.6099 1

