data_Pr1Ni1O3
_symmetry_space_group_name_H-M Pnma
_cell_length_a 5.5321
_cell_length_b 3.6607
_cell_length_c 5.2896
_cell_angle_alpha 90.0000
_cell_angle_beta 90.0000
_cell_angle_gamma 90.0000
_symmetry_Int_Tables_number 62
_chemical_formula_structural PrNiO
_chemical_formula_sum 'Pr12 Ni14 O3'
_cell_volume 107.4094
_cell_formula_units_Z 12
loop_
 _symmetry_equiv_pos_site_id
 _symmetry_equiv_pos_as_xyz
  1  '-x, y+1/2, -z'
  2  '-x, -y, -z'
  3  '-x+1/2, -y, z+1/2'
  4  'x+1/2, -y+1/2, -z+1/2'
  5  'x, y, z'
  6  'x-1/2, y, -z-1/2'
  7  '-x-1/2, y-1/2, z-1/2'
  8  'x, -y-1/2, z'
loop_
_atom_site_type_symbol
_atom_site_label
_atom_site_symmetry_multiplicity
_atom_site_fract_x
_atom_site_fract_y
_atom_site_fract_z
_atom_site_occupancy
Pr Pr0 4 0.0691 0.2500 0.5749 1
Pr Pr1 4 0.1036 0.7500 0.0022 1
Pr Pr2 4 0.2237 0.2500 0.0133 1
Ni Ni3 4 0.1332 0.7500 0.5059 1
Ni Ni4 4 0.2137 0.2500 0.4991 1
Ni Ni5 4 0.2007 0.7500 0.4923 1
Ni Ni6 4 0.2392 0.7500 0.9965 1
O O7 4 0.1257 0.2500 0.7947 1
O O8 4 0.1340 0.7500 0.7865 1
O O9 4 0.1453 0.2500 0.2278 1

