data_Nd1Cr1O3
_symmetry_space_group_name_H-M Pnma
_cell_length_a 5.5870
_cell_length_b 7.6824
_cell_length_c 5.3438
_cell_angle_alpha 90.0000
_cell_angle_beta 90.0000
_cell_angle_gamma 90.0000
_symmetry_Int_Tables_number 62
_chemical_formula_structural NdCrO3
_chemical_formula_sum 'Nd4 Cr4 O12'
_cell_volume 229.1312
_cell_formula_units_Z 4
loop_
 _symmetry_equiv_pos_site_id
 _symmetry_equiv_pos_as_xyz
  1  '-x, y+1/2, -z'
  2  '-x, -y, -z'
  3  '-x+1/2, -y, z+1/2'
  4  'x+1/2, -y+1/2, -z+1/2'
  5  'x, y, z'
  6  'x-1/2, y, -z-1/2'
  7  '-x-1/2, y-1/2, z-1/2'
  8  'x, -y-1/2, z'
loop_
_atom_site_type_symbol
_atom_site_label
_atom_site_symmetry_multiplicity
_atom_site_fract_x
_atom_site_fract_y
_atom_site_fract_z
_atom_site_occupancy
Nd Nd0 4 0.0636 0.2500 0.0164 1
Cr Cr1 4 0.0000 0.0000 0.5000 1
O O2 8 0.2035 0.5496 0.8013 1
O O3 4 0.0274 0.7500 0.4123 1

