data_Sr1Mn1O3
_symmetry_space_group_name_H-M Pnma
_cell_length_a 6.3645
_cell_length_b 3.4599
_cell_length_c 6.0355
_cell_angle_alpha 90.0000
_cell_angle_beta 90.0000
_cell_angle_gamma 90.0000
_symmetry_Int_Tables_number 62
_chemical_formula_structural SrMnO3
_chemical_formula_sum 'Sr12 Mn12 O36'
_cell_volume 132.5382
_cell_formula_units_Z 12
loop_
 _symmetry_equiv_pos_site_id
 _symmetry_equiv_pos_as_xyz
  1  '-x, y+1/2, -z'
  2  '-x, -y, -z'
  3  '-x+1/2, -y, z+1/2'
  4  'x+1/2, -y+1/2, -z+1/2'
  5  'x, y, z'
  6  'x-1/2, y, -z-1/2'
  7  '-x-1/2, y-1/2, z-1/2'
  8  'x, -y-1/2, z'
loop_
_atom_site_type_symbol
_atom_site_label
_atom_site_symmetry_multiplicity
_atom_site_fract_x
_atom_site_fract_y
_atom_site_fract_z
_atom_site_occupancy
Sr Sr0 4 0.0002 0.2500 0.7499 1
Sr Sr1 4 0.1669 0.2500 0.2416 1
Sr Sr2 4 0.1669 0.7500 0.7601 1
Mn Mn3 4 0.1164 0.2500 0.7436 1
Mn Mn4 4 0.1258 0.7500 0.2427 1
Mn Mn5 4 0.2500 0.7500 0.2434 1
O O6 8 0.1244 0.0173 0.5131 1
O O7 8 0.1249 0.5155 0.0179 1
O O8 4 0.0087 0.2500 0.2518 1
O O9 4 0.2345 0.2500 0.7585 1
O O10 4 0.2485 0.7500 0.7529 1
O O11 4 0.2490 0.7500 0.2666 1

