data_Ba1Co1O3
_symmetry_space_group_name_H-M Pnma
_cell_length_a 5.7482
_cell_length_b 4.0026
_cell_length_c 6.0584
_cell_angle_alpha 90.0000
_cell_angle_beta 90.0000
_cell_angle_gamma 90.0000
_symmetry_Int_Tables_number 62
_chemical_formula_structural BaCoO3
_chemical_formula_sum 'Ba12 Co12 O36'
_cell_volume 1393.7832
_cell_formula_units_Z 12
loop_
 _symmetry_equiv_pos_site_id
 _symmetry_equiv_pos_as_xyz
  1  '-x, y+1/2, -z'
  2  '-x, -y, -z'
  3  '-x+1/2, -y, z+1/2'
  4  'x+1/2, -y+1/2, -z+1/2'
  5  'x, y, z'
  6  'x-1/2, y, -z-1/2'
  7  '-x-1/2, y-1/2, z-1/2'
  8  'x, -y-1/2, z'
loop_
_atom_site_type_symbol
_atom_site_label
_atom_site_symmetry_multiplicity
_atom_site_fract_x
_atom_site_fract_y
_atom_site_fract_z
_atom_site_occupancy
Ba Ba0 4 0.0358 0.2500 0.8907 1
Ba Ba1 4 0.1824 0.7500 0.5831 1
Ba Ba2 4 0.1954 0.2500 0.4163 1
Co Co3 4 0.0840 0.2500 0.1714 1
Co Co4 4 0.0867 0.2500 0.6722 1
Co Co5 4 0.2023 0.7500 0.9268 1
O O6 4 0.0078 0.7500 0.7440 1
O O7 4 0.0554 0.2500 0.5679 1
O O8 4 0.0583 0.7500 0.9796 1
O O9 4 0.0626 0.7500 0.3921 1
O O10 4 0.1198 0.2500 0.0526 1
O O11 4 0.1854 0.2500 0.7635 1
O O12 4 0.1975 0.2500 0.2654 1
O O13 4 0.2257 0.7500 0.9543 1
O O14 4 0.2388 0.7500 0.1494 1

