data_Sm1Co1O3
_symmetry_space_group_name_H-M Pnma
_cell_length_a 5.5204
_cell_length_b 3.6257
_cell_length_c 5.2160
_cell_angle_alpha 90.0000
_cell_angle_beta 90.0000
_cell_angle_gamma 90.0000
_symmetry_Int_Tables_number 62
_chemical_formula_structural SmCoO3
_chemical_formula_sum 'Sm12 Co12 O36'
_cell_volume 104.7463
_cell_formula_units_Z 12
loop_
 _symmetry_equiv_pos_site_id
 _symmetry_equiv_pos_as_xyz
  1  '-x, y+1/2, -z'
  2  '-x, -y, -z'
  3  '-x+1/2, -y, z+1/2'
  4  'x+1/2, -y+1/2, -z+1/2'
  5  'x, y, z'
  6  'x-1/2, y, -z-1/2'
  7  '-x-1/2, y-1/2, z-1/2'
  8  'x, -y-1/2, z'
loop_
_atom_site_type_symbol
_atom_site_label
_atom_site_symmetry_multiplicity
_atom_site_fract_x
_atom_site_fract_y
_atom_site_fract_z
_atom_site_occupancy
Sm Sm0 4 0.0047 0.2500 0.5113 1
Sm Sm1 4 0.1721 0.7500 0.0072 1
Sm Sm2 4 0.1512 0.2500 0.0198 1
Co Co3 8 0.1671 0.0017 0.5091 1
Co Co4 4 0.0000 0.0000 0.0000 1
O O5 8 0.0741 0.5339 0.2091 1
O O6 8 0.0916 0.0489 0.7792 1
O O7 4 0.0119 0.2500 0.0772 1
O O8 4 0.2231 0.7500 0.5942 1
O O9 4 0.2249 0.2500 0.5831 1
O O10 4 0.2492 0.2500 0.2951 1

