data_Nd1Ni1O3
_symmetry_space_group_name_H-M Pnma
_cell_length_a 5.4436
_cell_length_b 3.6498
_cell_length_c 5.3118
_cell_angle_alpha 90.0000
_cell_angle_beta 90.0000
_cell_angle_gamma 90.0000
_symmetry_Int_Tables_number 62
_chemical_formula_structural NdNiO3
_chemical_formula_sum 'Nd12 Ni12 O36'
_cell_volume 105.9822
_cell_formula_units_Z 12
loop_
 _symmetry_equiv_pos_site_id
 _symmetry_equiv_pos_as_xyz
  1  '-x, y+1/2, -z'
  2  '-x, -y, -z'
  3  '-x+1/2, -y, z+1/2'
  4  'x+1/2, -y+1/2, -z+1/2'
  5  'x, y, z'
  6  'x-1/2, y, -z-1/2'
  7  '-x-1/2, y-1/2, z-1/2'
  8  'x, -y-1/2, z'
loop_
_atom_site_type_symbol
_atom_site_label
_atom_site_symmetry_multiplicity
_atom_site_fract_x
_atom_site_fract_y
_atom_site_fract_z
_atom_site_occupancy
Nd Nd0 4 0.0835 0.2500 0.5318 1
Nd Nd1 4 0.1355 0.7500 0.0095 1
Nd Nd2 4 0.2126 0.2500 0.0261 1
Ni Ni3 4 0.0611 0.2500 0.0022 1
Ni Ni4 4 0.0682 0.7500 0.5252 1
Ni Ni5 4 0.1491 0.7500 0.4644 1
O O6 8 0.0029 0.5131 0.7678 1
O O7 8 0.1651 0.5105 0.2613 1
O O8 8 0.1671 0.0175 0.7654 1
O O9 4 0.0664 0.7500 0.2605 1
O O10 4 0.0971 0.2500 0.2130 1
O O11 4 0.2429 0.7500 0.5462 1

