data_Pr1Fe1O3
_symmetry_space_group_name_H-M Pnma
_cell_length_a 5.6933
_cell_length_b 3.6485
_cell_length_c 5.9450
_cell_angle_alpha 90.0000
_cell_angle_beta 90.0000
_cell_angle_gamma 90.0000
_symmetry_Int_Tables_number 62
_chemical_formula_structural PrFeO3
_chemical_formula_sum 'Pr12 Fe12 O36'
_cell_volume 123.9544
_cell_formula_units_Z 12
loop_
 _symmetry_equiv_pos_site_id
 _symmetry_equiv_pos_as_xyz
  1  '-x, y+1/2, -z'
  2  '-x, -y, -z'
  3  '-x+1/2, -y, z+1/2'
  4  'x+1/2, -y+1/2, -z+1/2'
  5  'x, y, z'
  6  'x-1/2, y, -z-1/2'
  7  '-x-1/2, y-1/2, z-1/2'
  8  'x, -y-1/2, z'
loop_
_atom_site_type_symbol
_atom_site_label
_atom_site_symmetry_multiplicity
_atom_site_fract_x
_atom_site_fract_y
_atom_site_fract_z
_atom_site_occupancy
Pr Pr0 4 0.0436 0.7500 0.0089 1
Pr Pr1 4 0.2132 0.7500 0.5094 1
Pr Pr2 4 0.2172 0.2500 0.4891 1
Fe Fe3 8 0.0756 0.5016 0.4469 1
Fe Fe4 4 0.0774 0.2500 0.9286 1
O O5 8 0.0625 0.0160 0.7731 1
O O6 8 0.2419 0.5091 0.2466 1
O O7 8 0.2429 0.0124 0.7554 1
O O8 4 0.0023 0.2500 0.5432 1
O O9 4 0.0041 0.2500 0.9976 1
O O10 4 0.0090 0.2500 0.2709 1

