data_Ca1Cr1O3
_symmetry_space_group_name_H-M Pnma
_cell_length_a 5.4227
_cell_length_b 2.9237
_cell_length_c 6.1848
_cell_angle_alpha 90.0000
_cell_angle_beta 90.0000
_cell_angle_gamma 90.0000
_symmetry_Int_Tables_number 62
_chemical_formula_structural CaCrO3
_chemical_formula_sum 'Ca1 Cr1 O3'
_cell_volume 98.5224
_cell_formula_units_Z 1
loop_
 _symmetry_equiv_pos_site_id
 _symmetry_equiv_pos_as_xyz
  1  '-x, y+1/2, -z'
  2  '-x, -y, -z'
  3  '-x+1/2, -y, z+1/2'
  4  'x+1/2, -y+1/2, -z+1/2'
  5  'x, y, z'
  6  'x-1/2, y, -z-1/2'
  7  '-x-1/2, y-1/2, z-1/2'
  8  'x, -y-1/2, z'
loop_
_atom_site_type_symbol
_atom_site_label
_atom_site_symmetry_multiplicity
_atom_site_fract_x
_atom_site_fract_y
_atom_site_fract_z
_atom_site_occupancy
Ca Ca0 1 0.0812 0.2500 0.1703 1
Cr Cr1 1 0.5675 0.2500 0.6231 1
O O2 2 0.2328 0.7500 0.4200 1
O O3 2 0.3740 0.7500 0.8684 1
O O4 2 0.2558 0.2500 0.7441 1

