data_Sm1Mn1O3
_symmetry_space_group_name_H-M Pnma
_cell_length_a 5.6614
_cell_length_b 7.5231
_cell_length_c 5.3090
_cell_angle_alpha 90.0000
_cell_angle_beta 90.0000
_cell_angle_gamma 90.0000
_symmetry_Int_Tables_number 62
_chemical_formula_structural SmMnO3
_chemical_formula_sum 'Sm12 Mn12 O36'
_cell_volume 226.2190
_cell_formula_units_Z 12
loop_
 _symmetry_equiv_pos_site_id
 _symmetry_equiv_pos_as_xyz
  1  '-x, y+1/2, -z'
  2  '-x, -y, -z'
  3  '-x+1/2, -y, z+1/2'
  4  'x+1/2, -y+1/2, -z+1/2'
  5  'x, y, z'
  6  'x-1/2, y, -z-1/2'
  7  '-x-1/2, y-1/2, z-1/2'
  8  'x, -y-1/2, z'
loop_
_atom_site_type_symbol
_atom_site_label
_atom_site_symmetry_multiplicity
_atom_site_fract_x
_atom_site_fract_y
_atom_site_fract_z
_atom_site_occupancy
Sm Sm0 8 0.1773 0.0072 0.4650 1
Sm Sm1 4 0.0432 0.2500 0.9865 1
Mn Mn2 8 0.1474 0.6017 0.9733 1
Mn Mn3 4 0.1005 0.7500 0.4615 1
O O4 8 0.0129 0.5431 0.2311 1
O O5 8 0.0946 0.1172 0.1085 1
O O6 8 0.2009 0.6196 0.6771 1
O O7 4 0.0768 0.7500 0.1672 1
O O8 4 0.1660 0.2500 0.5091 1
O O9 4 0.2061 0.7500 0.7606 1

