data_La1Mn1O3
_symmetry_space_group_name_H-M Pnma
_cell_length_a 5.6717
_cell_length_b 7.7461
_cell_length_c 5.3743
_cell_angle_alpha 90.0000
_cell_angle_beta 90.0000
_cell_angle_gamma 90.0000
_symmetry_Int_Tables_number 62
_chemical_formula_structural LaMnO3
_chemical_formula_sum 'La12 Mn12 O36'
_cell_volume 235.8407
_cell_formula_units_Z 12
loop_
 _symmetry_equiv_pos_site_id
 _symmetry_equiv_pos_as_xyz
  1  '-x, y+1/2, -z'
  2  '-x, -y, -z'
  3  '-x+1/2, -y, z+1/2'
  4  'x+1/2, -y+1/2, -z+1/2'
  5  'x, y, z'
  6  'x-1/2, y, -z-1/2'
  7  '-x-1/2, y-1/2, z-1/2'
  8  'x, -y-1/2, z'
loop_
_atom_site_type_symbol
_atom_site_label
_atom_site_symmetry_multiplicity
_atom_site_fract_x
_atom_site_fract_y
_atom_site_fract_z
_atom_site_occupancy
La La0 8 0.1975 0.5034 0.5326 1
La La1 4 0.0215 0.7500 0.0068 1
Mn Mn2 8 0.0018 0.1669 0.5026 1
Mn Mn3 4 0.0000 0.0000 0.0000 1
O O4 8 0.0615 0.0722 0.2158 1
O O5 8 0.0971 0.6255 0.3213 1
O O6 8 0.1282 0.1020 0.8037 1
O O7 8 0.1764 0.6222 0.8285 1
O O8 4 0.1105 0.2500 0.3798 1

