data_Pr1Cr1O3
_symmetry_space_group_name_H-M Pnma
_cell_length_a 5.5761
_cell_length_b 7.7064
_cell_length_c 5.3290
_cell_angle_alpha 90.0000
_cell_angle_beta 90.0000
_cell_angle_gamma 90.0000
_symmetry_Int_Tables_number 62
_chemical_formula_structural PrCrO3
_chemical_formula_sum 'Pr12 Cr12 O36'
_cell_volume 230.4751
_cell_formula_units_Z 12
loop_
 _symmetry_equiv_pos_site_id
 _symmetry_equiv_pos_as_xyz
  1  '-x, y+1/2, -z'
  2  '-x, -y, -z'
  3  '-x+1/2, -y, z+1/2'
  4  'x+1/2, -y+1/2, -z+1/2'
  5  'x, y, z'
  6  'x-1/2, y, -z-1/2'
  7  '-x-1/2, y-1/2, z-1/2'
  8  'x, -y-1/2, z'
loop_
_atom_site_type_symbol
_atom_site_label
_atom_site_symmetry_multiplicity
_atom_site_fract_x
_atom_site_fract_y
_atom_site_fract_z
_atom_site_occupancy
Pr Pr0 8 0.2469 0.0811 0.4640 1
Pr Pr1 4 0.0090 0.7500 0.0010 1
Cr Cr2 8 0.0003 0.1668 0.0001 1
Cr Cr3 4 0.0000 0.0000 0.0000 1
O O4 8 0.0103 0.1539 0.6916 1
O O5 8 0.0105 0.5417 0.8063 1
O O6 8 0.2052 0.1013 0.0278 1
O O7 8 0.2080 0.5349 0.1967 1
O O8 4 0.0872 0.7500 0.6276 1

