data_Sr1Cr1O3
_symmetry_space_group_name_H-M Pnma
_cell_length_a 5.3800
_cell_length_b 3.3652
_cell_length_c 7.1054
_cell_angle_alpha 90.0000
_cell_angle_beta 90.0000
_cell_angle_gamma 90.0000
_symmetry_Int_Tables_number 62
_chemical_formula_structural SrCrO3
_chemical_formula_sum 'Sr4 Cr4 O12'
_cell_volume 128.9282
_cell_formula_units_Z 4
loop_
 _symmetry_equiv_pos_site_id
 _symmetry_equiv_pos_as_xyz
  1  '-x, y+1/2, -z'
  2  '-x, -y, -z'
  3  '-x+1/2, -y, z+1/2'
  4  'x+1/2, -y+1/2, -z+1/2'
  5  'x, y, z'
  6  'x-1/2, y, -z-1/2'
  7  '-x-1/2, y-1/2, z-1/2'
  8  'x, -y-1/2, z'
loop_
_atom_site_type_symbol
_atom_site_label
_atom_site_symmetry_multiplicity
_atom_site_fract_x
_atom_site_fract_y
_atom_site_fract_z
_atom_site_occupancy
Sr Sr0 4 0.2185 0.7500 0.6237 1
Cr Cr1 4 0.0419 0.7500 0.1407 1
O O2 8 0.0049 0.5055 0.3208 1
O O3 4 0.1525 0.7500 0.9335 1

