data_Pr1Mn1O3
_symmetry_space_group_name_H-M Pnma
_cell_length_a 5.6597
_cell_length_b 7.6133
_cell_length_c 5.3689
_cell_angle_alpha 90.0000
_cell_angle_beta 90.0000
_cell_angle_gamma 90.0000
_symmetry_Int_Tables_number 62
_chemical_formula_structural PrMnO3
_chemical_formula_sum 'Pr12 Mn12 O36'
_cell_volume 232.4862
_cell_formula_units_Z 12
loop_
 _symmetry_equiv_pos_site_id
 _symmetry_equiv_pos_as_xyz
  1  '-x, y+1/2, -z'
  2  '-x, -y, -z'
  3  '-x+1/2, -y, z+1/2'
  4  'x+1/2, -y+1/2, -z+1/2'
  5  'x, y, z'
  6  'x-1/2, y, -z-1/2'
  7  '-x-1/2, y-1/2, z-1/2'
  8  'x, -y-1/2, z'
loop_
_atom_site_type_symbol
_atom_site_label
_atom_site_symmetry_multiplicity
_atom_site_fract_x
_atom_site_fract_y
_atom_site_fract_z
_atom_site_occupancy
Pr Pr0 8 0.2124 0.5093 0.0290 1
Pr Pr1 4 0.0187 0.7500 0.5089 1
Mn Mn2 8 0.0114 0.1283 0.0009 1
Mn Mn3 4 0.0000 0.0000 0.5000 1
O O4 8 0.0133 0.5445 0.2299 1
O O5 8 0.0633 0.1168 0.3918 1
O O6 8 0.2000 0.6191 0.7993 1
O O7 4 0.0976 0.7500 0.2102 1
O O8 4 0.1507 0.2500 0.8596 1
O O9 4 0.1730 0.7500 0.7230 1

