data_Pr1Co1O3
_symmetry_space_group_name_H-M Pnma
_cell_length_a 5.2570
_cell_length_b 3.5702
_cell_length_c 7.4328
_cell_angle_alpha 90.0000
_cell_angle_beta 90.0000
_cell_angle_gamma 90.0000
_symmetry_Int_Tables_number 62
_chemical_formula_structural PrCoO3
_chemical_formula_sum 'Pr12 Co12 O36'
_cell_volume 140.0562
_cell_formula_units_Z 12
loop_
 _symmetry_equiv_pos_site_id
 _symmetry_equiv_pos_as_xyz
  1  '-x, y+1/2, -z'
  2  '-x, -y, -z'
  3  '-x+1/2, -y, z+1/2'
  4  'x+1/2, -y+1/2, -z+1/2'
  5  'x, y, z'
  6  'x-1/2, y, -z-1/2'
  7  '-x-1/2, y-1/2, z-1/2'
  8  'x, -y-1/2, z'
loop_
_atom_site_type_symbol
_atom_site_label
_atom_site_symmetry_multiplicity
_atom_site_fract_x
_atom_site_fract_y
_atom_site_fract_z
_atom_site_occupancy
Pr Pr0 4 0.0261 0.7500 0.1984 1
Pr Pr1 4 0.1884 0.7500 0.5846 1
Pr Pr2 4 0.1949 0.2500 0.4194 1
Co Co3 4 0.0627 0.2500 0.0329 1
Co Co4 4 0.1132 0.2500 0.6584 1
Co Co5 4 0.1448 0.7500 0.8695 1
O O6 4 0.0226 0.7500 0.4166 1
O O7 4 0.0596 0.2500 0.8948 1
O O8 4 0.0647 0.7500 0.7171 1
O O9 4 0.1296 0.2500 0.2200 1
O O10 4 0.1476 0.7500 0.0479 1
O O11 4 0.1513 0.2500 0.5691 1
O O12 4 0.2211 0.7500 0.3945 1
O O13 4 0.2454 0.7500 0.7877 1
O O14 4 0.2499 0.2500 0.9352 1

