data_Ba1Ni1O3
_symmetry_space_group_name_H-M Pnma
_cell_length_a 6.4143
_cell_length_b 3.8591
_cell_length_c 5.9214
_cell_angle_alpha 90.0000
_cell_angle_beta 90.0000
_cell_angle_gamma 90.0000
_symmetry_Int_Tables_number 62
_chemical_formula_structural BaNiO3
_chemical_formula_sum 'Ba1 Ni1 O3'
_cell_volume 146.8565
_cell_formula_units_Z 1
loop_
 _symmetry_equiv_pos_site_id
 _symmetry_equiv_pos_as_xyz
  1  '-x, y+1/2, -z'
  2  '-x, -y, -z'
  3  '-x+1/2, -y, z+1/2'
  4  'x+1/2, -y+1/2, -z+1/2'
  5  'x, y, z'
  6  'x-1/2, y, -z-1/2'
  7  '-x-1/2, y-1/2, z-1/2'
  8  'x, -y-1/2, z'
loop_
_atom_site_type_symbol
_atom_site_label
_atom_site_symmetry_multiplicity
_atom_site_fract_x
_atom_site_fract_y
_atom_site_fract_z
_atom_site_occupancy
Ba Ba0 1 0.1362 0.2500 0.1521 1
Ni Ni1 1 0.5475 0.2500 0.6082 1
O O2 2 0.2259 0.2500 0.6947 1
O O3 2 0.4788 0.2500 0.7964 1
O O4 2 0.4866 0.7500 0.5681 1

