data_La1Mn1O3
_symmetry_space_group_name_H-M Pnma
_cell_length_a 5.9553
_cell_length_b 3.7414
_cell_length_c 5.5755
_cell_angle_alpha 90.0000
_cell_angle_beta 90.0000
_cell_angle_gamma 90.0000
_symmetry_Int_Tables_number 62
_chemical_formula_structural LaMnO3
_chemical_formula_sum 'La12 Mn12 O36'
_cell_volume 124.1764
_cell_formula_units_Z 12
loop_
 _symmetry_equiv_pos_site_id
 _symmetry_equiv_pos_as_xyz
  1  '-x, y+1/2, -z'
  2  '-x, -y, -z'
  3  '-x+1/2, -y, z+1/2'
  4  'x+1/2, -y+1/2, -z+1/2'
  5  'x, y, z'
  6  'x-1/2, y, -z-1/2'
  7  '-x-1/2, y-1/2, z-1/2'
  8  'x, -y-1/2, z'
loop_
_atom_site_type_symbol
_atom_site_label
_atom_site_symmetry_multiplicity
_atom_site_fract_x
_atom_site_fract_y
_atom_site_fract_z
_atom_site_occupancy
La La0 4 0.0154 0.7500 0.9981 1
La La1 4 0.1833 0.2500 0.4953 1
La La2 4 0.1865 0.7500 0.5088 1
Mn Mn3 8 0.1639 0.5019 0.0004 1
Mn Mn4 4 0.0000 0.0000 0.5000 1
O O5 8 0.0603 0.0097 0.2005 1
O O6 8 0.0960 0.5042 0.6975 1
O O7 8 0.2405 0.5104 0.2718 1
O O8 4 0.0023 0.7500 0.4619 1
O O9 4 0.1667 0.2500 0.9968 1
O O10 4 0.1741 0.7500 0.0082 1

