data_Sm1Mn1O3
_symmetry_space_group_name_H-M Pnma
_cell_length_a 5.6360
_cell_length_b 7.5303
_cell_length_c 5.2801
_cell_angle_alpha 90.0000
_cell_angle_beta 90.0000
_cell_angle_gamma 90.0000
_symmetry_Int_Tables_number 62
_chemical_formula_structural SmMnO3
_chemical_formula_sum 'Sm12 Mn12 O36'
_cell_volume 224.3351
_cell_formula_units_Z 12
loop_
 _symmetry_equiv_pos_site_id
 _symmetry_equiv_pos_as_xyz
  1  '-x, y+1/2, -z'
  2  '-x, -y, -z'
  3  '-x+1/2, -y, z+1/2'
  4  'x+1/2, -y+1/2, -z+1/2'
  5  'x, y, z'
  6  'x-1/2, y, -z-1/2'
  7  '-x-1/2, y-1/2, z-1/2'
  8  'x, -y-1/2, z'
loop_
_atom_site_type_symbol
_atom_site_label
_atom_site_symmetry_multiplicity
_atom_site_fract_x
_atom_site_fract_y
_atom_site_fract_z
_atom_site_occupancy
Sm Sm0 8 0.1830 0.0096 0.5273 1
Sm Sm1 4 0.0293 0.2500 0.0165 1
Mn Mn2 8 0.1468 0.5017 0.0358 1
Mn Mn3 4 0.0000 0.0000 0.0000 1
O O4 8 0.0235 0.5463 0.2852 1
O O5 8 0.0969 0.0765 0.8791 1
O O6 8 0.2014 0.6145 0.7451 1
O O7 8 0.2268 0.1070 0.2199 1
O O8 4 0.0250 0.2500 0.3886 1

