data_Nd1Ni1O3
_symmetry_space_group_name_H-M Pnma
_cell_length_a 5.5155
_cell_length_b 3.6858
_cell_length_c 5.2160
_cell_angle_alpha 90.0000
_cell_angle_beta 90.0000
_cell_angle_gamma 90.0000
_symmetry_Int_Tables_number 62
_chemical_formula_structural NdNiO3
_chemical_formula_sum 'Nd12 Ni12 O36'
_cell_volume 106.2968
_cell_formula_units_Z 12
loop_
 _symmetry_equiv_pos_site_id
 _symmetry_equiv_pos_as_xyz
  1  '-x, y+1/2, -z'
  2  '-x, -y, -z'
  3  '-x+1/2, -y, z+1/2'
  4  'x+1/2, -y+1/2, -z+1/2'
  5  'x, y, z'
  6  'x-1/2, y, -z-1/2'
  7  '-x-1/2, y-1/2, z-1/2'
  8  'x, -y-1/2, z'
loop_
_atom_site_type_symbol
_atom_site_label
_atom_site_symmetry_multiplicity
_atom_site_fract_x
_atom_site_fract_y
_atom_site_fract_z
_atom_site_occupancy
Nd Nd0 4 0.0161 0.2500 0.4954 1
Nd Nd1 4 0.1884 0.2500 0.9943 1
Nd Nd2 4 0.2090 0.7500 0.0134 1
Ni Ni3 4 0.0000 0.0000 0.0000 1
Ni Ni4 4 0.0759 0.7500 0.5311 1
Ni Ni5 4 0.1402 0.2500 0.4643 1
O O6 8 0.0662 0.5177 0.2894 1
O O7 8 0.0994 0.0297 0.8108 1
O O8 4 0.0638 0.2500 0.0856 1
O O9 4 0.2077 0.7500 0.5166 1
O O10 4 0.2158 0.7500 0.2390 1
O O11 4 0.2285 0.2500 0.4731 1
O O12 4 0.2490 0.2500 0.2825 1

