data_La1Fe1O3
_symmetry_space_group_name_H-M Pnma
_cell_length_a 5.6521
_cell_length_b 3.8622
_cell_length_c 5.3276
_cell_angle_alpha 90.0000
_cell_angle_beta 90.0000
_cell_angle_gamma 90.0000
_symmetry_Int_Tables_number 62
_chemical_formula_structural LaFeO3
_chemical_formula_sum 'La12 Fe12 O36'
_cell_volume 116.6013
_cell_formula_units_Z 12
loop_
 _symmetry_equiv_pos_site_id
 _symmetry_equiv_pos_as_xyz
  1  '-x, y+1/2, -z'
  2  '-x, -y, -z'
  3  '-x+1/2, -y, z+1/2'
  4  'x+1/2, -y+1/2, -z+1/2'
  5  'x, y, z'
  6  'x-1/2, y, -z-1/2'
  7  '-x-1/2, y-1/2, z-1/2'
  8  'x, -y-1/2, z'
loop_
_atom_site_type_symbol
_atom_site_label
_atom_site_symmetry_multiplicity
_atom_site_fract_x
_atom_site_fract_y
_atom_site_fract_z
_atom_site_occupancy
La La0 4 0.0496 0.7500 0.0119 1
La La1 4 0.2081 0.2500 0.5099 1
La La2 4 0.2196 0.7500 0.4949 1
Fe Fe3 8 0.0823 0.5018 0.5149 1
Fe Fe4 4 0.0034 0.2500 0.0135 1
O O5 8 0.0159 0.0330 0.2627 1
O O6 8 0.1002 0.0392 0.8821 1
O O7 8 0.1731 0.5336 0.3166 1
O O8 8 0.1922 0.5359 0.7100 1
O O9 4 0.0828 0.7500 0.4641 1

