data_Sr1Ni1O3
_symmetry_space_group_name_H-M Pnma
_cell_length_a 5.9198
_cell_length_b 3.2669
_cell_length_c 6.5232
_cell_angle_alpha 90.0000
_cell_angle_beta 90.0000
_cell_angle_gamma 90.0000
_symmetry_Int_Tables_number 62
_chemical_formula_structural SrNiO3
_chemical_formula_sum 'Sr12 Ni12 O18'
_cell_volume 126.6537
_cell_formula_units_Z 12
loop_
 _symmetry_equiv_pos_site_id
 _symmetry_equiv_pos_as_xyz
  1  '-x, y+1/2, -z'
  2  '-x, -y, -z'
  3  '-x+1/2, -y, z+1/2'
  4  'x+1/2, -y+1/2, -z+1/2'
  5  'x, y, z'
  6  'x-1/2, y, -z-1/2'
  7  '-x-1/2, y-1/2, z-1/2'
  8  'x, -y-1/2, z'
loop_
_atom_site_type_symbol
_atom_site_label
_atom_site_symmetry_multiplicity
_atom_site_fract_x
_atom_site_fract_y
_atom_site_fract_z
_atom_site_occupancy
Sr Sr0 4 0.0454 0.2500 0.3764 1
Sr Sr1 4 0.1067 0.7500 0.0831 1
Sr Sr2 4 0.2234 0.2500 0.7378 1
Ni Ni3 4 0.1426 0.7500 0.8121 1
Ni Ni4 4 0.1561 0.7500 0.4485 1
Ni Ni5 4 0.0960 0.2500 0.0023 1
O O6 4 0.0386 0.7500 0.8659 1
O O7 4 0.0610 0.2500 0.7057 1
O O8 4 0.1443 0.7500 0.2900 1
O O9 4 0.2408 0.2500 0.0453 1
O O10 4 0.2423 0.2500 0.4531 1

