data_Pr1Mn1O3
_symmetry_space_group_name_H-M Pnma
_cell_length_a 5.6308
_cell_length_b 3.8629
_cell_length_c 5.3912
_cell_angle_alpha 90.0000
_cell_angle_beta 90.0000
_cell_angle_gamma 90.0000
_symmetry_Int_Tables_number 62
_chemical_formula_structural PrMnO3
_chemical_formula_sum 'Pr12 Mn12 O36'
_cell_volume 117.4109
_cell_formula_units_Z 12
loop_
 _symmetry_equiv_pos_site_id
 _symmetry_equiv_pos_as_xyz
  1  '-x, y+1/2, -z'
  2  '-x, -y, -z'
  3  '-x+1/2, -y, z+1/2'
  4  'x+1/2, -y+1/2, -z+1/2'
  5  'x, y, z'
  6  'x-1/2, y, -z-1/2'
  7  '-x-1/2, y-1/2, z-1/2'
  8  'x, -y-1/2, z'
loop_
_atom_site_type_symbol
_atom_site_label
_atom_site_symmetry_multiplicity
_atom_site_fract_x
_atom_site_fract_y
_atom_site_fract_z
_atom_site_occupancy
Pr Pr0 4 0.0590 0.7500 0.5165 1
Pr Pr1 4 0.1903 0.2500 0.0088 1
Pr Pr2 4 0.2263 0.7500 0.0198 1
Mn Mn3 4 0.0027 0.7500 0.0051 1
Mn Mn4 4 0.1669 0.2500 0.5029 1
Mn Mn5 4 0.1679 0.7500 0.4954 1
O O6 4 0.0102 0.7500 0.2648 1
O O7 4 0.0668 0.2500 0.7815 1
O O8 4 0.0674 0.2500 0.3010 1
O O9 4 0.1060 0.7500 0.0064 1
O O10 4 0.1276 0.2500 0.5173 1
O O11 4 0.1703 0.7500 0.6929 1
O O12 4 0.2034 0.2500 0.1953 1
O O13 4 0.2202 0.7500 0.3810 1
O O14 4 0.2397 0.7500 0.1200 1

