data_image0
_chemical_formula_structural       Fe3CoFe3CoFeCoFeCoFeCoFeCo
_chemical_formula_sum              "Fe10 Co6"
_cell_length_a       5.6962908156442325
_cell_length_b       5.699107669263597
_cell_length_c       5.694398880004883
_cell_angle_alpha    90.03353190092339
_cell_angle_beta     90.03035586562169
_cell_angle_gamma    90.13747372470209

_space_group_name_H-M_alt    "P 1"
_space_group_IT_number       1

loop_
  _space_group_symop_operation_xyz
  'x, y, z'

loop_
  _atom_site_type_symbol
  _atom_site_label
  _atom_site_symmetry_multiplicity
  _atom_site_fract_x
  _atom_site_fract_y
  _atom_site_fract_z
  _atom_site_occupancy
  Fe  Fe1       1.0  0.2595021121517515  0.04298112115858105  0.3495360605905806  1.0000
  Fe  Fe2       1.0  0.7603295446526314  0.043089601629878585  0.8515235178257833  1.0000
  Fe  Fe3       1.0  0.5090249180821373  0.2926976687168968  0.10033740793721425  1.0000
  Co  Co1       1.0  0.5106108776219437  0.7924319504991879  0.6005829577862344  1.0000
  Fe  Fe4       1.0  0.7603282924391911  0.5439895396254759  0.3503471314156358  1.0000
  Fe  Fe5       1.0  0.7598861449626165  0.04309594650216462  0.3505834928808704  1.0000
  Fe  Fe6       1.0  0.2594021550157281  0.544348895223977  0.8509488100698792  1.0000
  Co  Co2       1.0  0.5098305339045954  0.7930985095130915  0.10086990961568204  1.0000
  Fe  Fe7       1.0  0.010984948467980475  0.7945398693776186  0.6015322808700198  1.0000
  Co  Co3       1.0  0.009190145742632503  0.29383590827382305  0.10071933232385759  1.0000
  Fe  Fe8       1.0  0.760022043726741  0.5435463197651077  0.850905776414778  1.0000
  Co  Co4       1.0  0.008489323429867761  0.2942404745966942  0.6006518000549806  1.0000
  Fe  Fe9       1.0  0.508285044827982  0.2921051987205281  0.6016598339133604  1.0000
  Co  Co5       1.0  0.009337573923448115  0.7932687998491976  0.10133745588725103  1.0000
  Fe  Fe10      1.0  0.2593694933786667  0.5436308385173958  0.35065817824386963  1.0000
  Co  Co6       1.0  0.2607767579444796  0.044623565747660174  0.8498350377067194  1.0000
