data_image0
_chemical_formula_structural       FEuFEu7
_chemical_formula_sum              "F2 Eu8"
_cell_length_a       6.677217015147141
_cell_length_b       6.67063152967078
_cell_length_c       7.7816081047058105
_cell_angle_alpha    89.98908786268805
_cell_angle_beta     90.00288484422694
_cell_angle_gamma    108.48115528173791

_space_group_name_H-M_alt    "P 1"
_space_group_IT_number       1

loop_
  _space_group_symop_operation_xyz
  'x, y, z'

loop_
  _atom_site_type_symbol
  _atom_site_label
  _atom_site_symmetry_multiplicity
  _atom_site_fract_x
  _atom_site_fract_y
  _atom_site_fract_z
  _atom_site_occupancy
  F   F1        1.0  0.681735098243507  0.6621969943931351  0.868531882559315  1.0000
  Eu  Eu1       1.0  0.4361668523834067  0.9072773454420463  0.36799982195815195  1.0000
  F   F2        1.0  0.682021141557046  0.6621664172125574  0.367843330455262  1.0000
  Eu  Eu2       1.0  0.4346766472389229  0.41468155381749017  0.6189273598257735  1.0000
  Eu  Eu3       1.0  0.4344753031102163  0.41465243713393257  0.11897530385577004  1.0000
  Eu  Eu4       1.0  0.9292366508137645  0.9100748895490568  0.11902342672930684  1.0000
  Eu  Eu5       1.0  0.9273203609799422  0.41649860178542997  0.3688857557768667  1.0000
  Eu  Eu6       1.0  0.43643271920441984  0.9079316860420379  0.8691316838576544  1.0000
  Eu  Eu7       1.0  0.9294147490658721  0.909925699146204  0.618453204883197  1.0000
  Eu  Eu8       1.0  0.9276513453675296  0.4165828822633614  0.8680691715870212  1.0000
