data_image0
_chemical_formula_structural       Fe2AuPt
_chemical_formula_sum              "Fe2 Au1 Pt1"
_cell_length_a       2.7640426207729836
_cell_length_b       4.719278974909739
_cell_length_c       4.7179484367370605
_cell_angle_alpha    108.7000011938057
_cell_angle_beta     90.04135930209588
_cell_angle_gamma    90.03981567667853

_space_group_name_H-M_alt    "P 1"
_space_group_IT_number       1

loop_
  _space_group_symop_operation_xyz
  'x, y, z'

loop_
  _atom_site_type_symbol
  _atom_site_label
  _atom_site_symmetry_multiplicity
  _atom_site_fract_x
  _atom_site_fract_y
  _atom_site_fract_z
  _atom_site_occupancy
  Fe  Fe1       1.0  0.643574296090534  0.6487554310632925  0.578782379046845  1.0000
  Fe  Fe2       1.0  0.643140791877176  0.14833709578898518  0.0789051732608595  1.0000
  Au  Au1       1.0  0.14336752863159785  0.6485920538996278  0.07864645889142459  1.0000
  Pt  Pt1       1.0  0.14341236552884296  0.14828005516406564  0.5787959111903218  1.0000
