data_image0
_chemical_formula_structural       Gd3LiO4GdO
_chemical_formula_sum              "Gd4 Li1 O5"
_cell_length_a       3.4165906169974942
_cell_length_b       5.917069650867101
_cell_length_c       7.553585052490234
_cell_angle_alpha    75.50754988394219
_cell_angle_beta     76.97324027892901
_cell_angle_gamma    73.20363861624166

_space_group_name_H-M_alt    "P 1"
_space_group_IT_number       1

loop_
  _space_group_symop_operation_xyz
  'x, y, z'

loop_
  _atom_site_type_symbol
  _atom_site_label
  _atom_site_symmetry_multiplicity
  _atom_site_fract_x
  _atom_site_fract_y
  _atom_site_fract_z
  _atom_site_occupancy
  Gd  Gd1       1.0  0.5546484597019654  0.09746629003890273  0.6762603524786918  1.0000
  Gd  Gd2       1.0  0.3563876140244765  0.6867358083681281  0.48422190543160926  1.0000
  Gd  Gd3       1.0  0.16568127184703457  0.288309275294729  0.26439997513174557  1.0000
  Li  Li1       1.0  0.7606399052762114  0.4867657420032193  0.8740683791422301  1.0000
  O   O1        1.0  0.9574443693878356  0.390526116071559  0.5782034998892402  1.0000
  O   O2        1.0  0.1562132971041351  0.799462795444373  0.7700633998467902  1.0000
  O   O3        1.0  0.5647409553499427  0.5836574440777043  0.16984267473324777  1.0000
  O   O4        1.0  0.7612888209869615  0.9868435265394414  0.37412050367998567  1.0000
  Gd  Gd4       1.0  0.9669663316046088  0.8761198523032774  0.07200162065971166  1.0000
  O   O5        1.0  0.3657396441474771  0.1746143100941564  0.977648735632266  1.0000
