data_image0
_chemical_formula_structural       Fe5RhFeRh2FeRh2
_chemical_formula_sum              "Fe7 Rh5"
_cell_length_a       3.7069058850736605
_cell_length_b       5.35515984776592
_cell_length_c       8.036075592041016
_cell_angle_alpha    89.25232903583606
_cell_angle_beta     90.00875197699222
_cell_angle_gamma    89.99800808927714

_space_group_name_H-M_alt    "P 1"
_space_group_IT_number       1

loop_
  _space_group_symop_operation_xyz
  'x, y, z'

loop_
  _atom_site_type_symbol
  _atom_site_label
  _atom_site_symmetry_multiplicity
  _atom_site_fract_x
  _atom_site_fract_y
  _atom_site_fract_z
  _atom_site_occupancy
  Fe  Fe1       1.0  0.26731127529097864  0.12091558415597642  0.06683971779597789  1.0000
  Fe  Fe2       1.0  0.767102540183136  0.3717201655456849  0.23593246914022006  1.0000
  Fe  Fe3       1.0  0.26731005320722984  0.6276515122084747  0.7316471939122535  1.0000
  Fe  Fe4       1.0  0.267730742855057  0.6177102921152077  0.06502181989560962  1.0000
  Fe  Fe5       1.0  0.26741540357023674  0.6231613759748194  0.39848887894825635  1.0000
  Rh  Rh1       1.0  0.7675834295403551  0.8639184232694641  0.2285632336009851  1.0000
  Fe  Fe6       1.0  0.26759126811025313  0.1243851709619728  0.7291849254272446  1.0000
  Rh  Rh2       1.0  0.7675521973348095  0.38143971511855335  0.5679971578787657  1.0000
  Rh  Rh3       1.0  0.26744469994298503  0.12334068930530476  0.3981555996115696  1.0000
  Fe  Fe7       1.0  0.7674502737678078  0.8737529521225218  0.560798526176567  1.0000
  Rh  Rh4       1.0  0.7674351930119127  0.3727223871625367  0.9044248460938633  1.0000
  Rh  Rh5       1.0  0.7673794627942093  0.8732429743438785  0.8922299738084687  1.0000
