data_image0
_chemical_formula_structural       EuAsPdEuAsPdEuPdEu
_chemical_formula_sum              "Eu4 As2 Pd3"
_cell_length_a       4.374137422207243
_cell_length_b       4.3745971842222575
_cell_length_c       15.224678039550781
_cell_angle_alpha    89.9518906553109
_cell_angle_beta     90.1002560149195
_cell_angle_gamma    119.98234241793442

_space_group_name_H-M_alt    "P 1"
_space_group_IT_number       1

loop_
  _space_group_symop_operation_xyz
  'x, y, z'

loop_
  _atom_site_type_symbol
  _atom_site_label
  _atom_site_symmetry_multiplicity
  _atom_site_fract_x
  _atom_site_fract_y
  _atom_site_fract_z
  _atom_site_occupancy
  Eu  Eu1       1.0  0.888993858727083  0.37527164823600456  0.6942489148549353  1.0000
  As  As1       1.0  0.888060689296902  0.37526381014137206  0.0547510648343118  1.0000
  Pd  Pd1       1.0  0.5547466884942202  0.7084472178776638  0.05267262444704915  1.0000
  Eu  Eu2       1.0  0.2218050791579821  0.04218211289906517  0.19268970167992402  1.0000
  As  As2       1.0  0.5552823549289218  0.7087216963397004  0.3355143371262683  1.0000
  Pd  Pd2       1.0  0.8886453504250134  0.37521112072745383  0.3337589504140977  1.0000
  Eu  Eu3       1.0  0.2219396236659883  0.041990712961954384  0.4575429558741426  1.0000
  Pd  Pd3       1.0  0.5552312135696357  0.7086996441111655  0.7969027160020431  1.0000
  Eu  Eu4       1.0  0.2213156223787345  0.041714268378536874  0.9159356950371071  1.0000
