data_image0
_chemical_formula_structural       Fe2Re2Fe8
_chemical_formula_sum              "Fe10 Re2"
_cell_length_a       4.079526489162355
_cell_length_b       5.790856975904865
_cell_length_c       6.2653961181640625
_cell_angle_alpha    103.40146952153593
_cell_angle_beta     89.98979137200634
_cell_angle_gamma    89.99932631574643

_space_group_name_H-M_alt    "P 1"
_space_group_IT_number       1

loop_
  _space_group_symop_operation_xyz
  'x, y, z'

loop_
  _atom_site_type_symbol
  _atom_site_label
  _atom_site_symmetry_multiplicity
  _atom_site_fract_x
  _atom_site_fract_y
  _atom_site_fract_z
  _atom_site_occupancy
  Fe  Fe1       1.0  0.3393966853618622  0.037356048822402954  0.558077335357666  1.0000
  Fe  Fe2       1.0  0.8394519686698914  0.1167614310979843  0.8900175094604491  1.0000
  Re  Re1       1.0  0.33954501152038574  0.7006702423095703  0.21949332952499387  1.0000
  Re  Re2       1.0  0.33915194869041443  0.5325080156326294  0.5599126219749451  1.0000
  Fe  Fe3       1.0  0.33922362327575684  0.8743924498558043  0.8870194554328917  1.0000
  Fe  Fe4       1.0  0.8395708203315735  0.2771017849445343  0.557904064655304  1.0000
  Fe  Fe5       1.0  0.8394964933395386  0.4429295063018798  0.22326791286468503  1.0000
  Fe  Fe6       1.0  0.8392617106437683  0.9559826254844664  0.22121044993400568  1.0000
  Fe  Fe7       1.0  0.839460015296936  0.790277898311615  0.5565419793128967  1.0000
  Fe  Fe8       1.0  0.3395250737667084  0.19663523137569427  0.22166343033313748  1.0000
  Fe  Fe9       1.0  0.8394808173179626  0.6164525151252747  0.8898048400878905  1.0000
  Fe  Fe10      1.0  0.33946090936660767  0.35881826281547546  0.8922321200370787  1.0000
