data_image0
_chemical_formula_structural       Mn2F2MnFMnF3OFMnF5OF
_chemical_formula_sum              "Mn5 F13 O2"
_cell_length_a       6.409377532853809
_cell_length_b       7.077785048455526
_cell_length_c       7.823510646820068
_cell_angle_alpha    99.03388399638571
_cell_angle_beta     108.1580182105926
_cell_angle_gamma    108.90997196308341

_space_group_name_H-M_alt    "P 1"
_space_group_IT_number       1

loop_
  _space_group_symop_operation_xyz
  'x, y, z'

loop_
  _atom_site_type_symbol
  _atom_site_label
  _atom_site_symmetry_multiplicity
  _atom_site_fract_x
  _atom_site_fract_y
  _atom_site_fract_z
  _atom_site_occupancy
  Mn  Mn1       1.0  0.32686054706573486  0.8796509504318237  0.24427652359008784  1.0000
  Mn  Mn2       1.0  0.5503222942352295  0.6613212823867797  0.6175827980041504  1.0000
  F   F1        1.0  0.08622624725103378  0.7508744597434998  0.9658295512199401  1.0000
  F   F2        1.0  0.8384499549865723  0.7933011651039124  0.5573442578315735  1.0000
  Mn  Mn3       1.0  0.7117089033126831  0.21335850656032562  0.7832626700401305  1.0000
  F   F3        1.0  0.08884330838918686  0.8967511057853699  0.34142914414405817  1.0000
  Mn  Mn4       1.0  0.1178484782576561  0.004835037514567375  0.8798609375953673  1.0000
  F   F4        1.0  0.06319482624530792  0.256845623254776  0.8323521018028258  1.0000
  F   F5        1.0  0.31737762689590454  0.6093848347663879  0.7003219127655028  1.0000
  F   F6        1.0  0.5897208452224731  0.864901065826416  0.1813196539878845  1.0000
  O   O1        1.0  0.6781937479972839  0.4720486104488372  0.11392981559038158  1.0000
  F   F7        1.0  0.3723985552787781  0.07889384776353836  0.7710168957710265  1.0000
  Mn  Mn5       1.0  0.8869536519050598  0.010760818608105183  0.41885825991630554  1.0000
  F   F8        1.0  0.34168925881385803  0.1230897381901741  0.16583983600139615  1.0000
  F   F9        1.0  0.7483187317848206  0.9291245937347412  0.8411128520965575  1.0000
  F   F10       1.0  0.6411827802658081  0.4427037537097931  0.6793420910835265  1.0000
  F   F11       1.0  0.3443550169467925  0.6654030084609984  0.3631310164928436  1.0000
  F   F12       1.0  0.0015527900541201234  0.25206300616264343  0.3639737963676452  1.0000
  O   O2        1.0  0.8127414584159851  0.3933905959129333  0.07616376131772995  1.0000
  F   F13       1.0  0.6548283696174622  0.0810614824295044  0.5022745132446289  1.0000
