data_image0
_chemical_formula_structural       Fe2CoFeCo3FeCo5FeCo2FeCoFe
_chemical_formula_sum              "Fe7 Co12"
_cell_length_a       6.106257283954724
_cell_length_b       6.1123512557149375
_cell_length_c       6.142741680145264
_cell_angle_alpha    80.7281914677579
_cell_angle_beta     80.70137693858376
_cell_angle_gamma    81.012497801553

_space_group_name_H-M_alt    "P 1"
_space_group_IT_number       1

loop_
  _space_group_symop_operation_xyz
  'x, y, z'

loop_
  _atom_site_type_symbol
  _atom_site_label
  _atom_site_symmetry_multiplicity
  _atom_site_fract_x
  _atom_site_fract_y
  _atom_site_fract_z
  _atom_site_occupancy
  Fe  Fe1       1.0  0.9950470924377441  0.52309912443161  0.1839447021484375  1.0000
  Fe  Fe2       1.0  0.9923624992370605  0.027284776791930195  0.6912985444068909  1.0000
  Co  Co1       1.0  0.2963776290416717  0.32998102903366083  0.4754043519496918  1.0000
  Fe  Fe3       1.0  0.1941727101802826  0.7265913486480712  0.388278067111969  1.0000
  Co  Co2       1.0  0.2950007617473602  0.8155983686447144  0.9912468791007996  1.0000
  Co  Co3       1.0  0.588462769985199  0.6233193278312682  0.2861730456352234  1.0000
  Co  Co4       1.0  0.19153861701488495  0.22724264860153195  0.8884217739105225  1.0000
  Fe  Fe4       1.0  0.7877321839332581  0.8231809139251708  0.48473504185676575  1.0000
  Co  Co5       1.0  0.4852014482021332  0.5190502405166626  0.7013359665870667  1.0000
  Co  Co6       1.0  0.8903720378875732  0.42680469155311584  0.5873509049415588  1.0000
  Co  Co7       1.0  0.5915237665176392  0.12340167909860611  0.7861771583557129  1.0000
  Co  Co8       1.0  0.7754693627357483  0.332328051328659  0.9947240352630615  1.0000
  Co  Co9       1.0  0.8893620371818542  0.9248266220092772  0.08792479336261749  1.0000
  Fe  Fe5       1.0  0.08951351791620255  0.12540960311889648  0.28456178307533264  1.0000
  Co  Co10      1.0  0.3899093270301819  0.9258487224578857  0.585537850856781  1.0000
  Co  Co11      1.0  0.4839273691177368  0.043805386871099465  0.18172107636928558  1.0000
  Fe  Fe6       1.0  0.08993867784738538  0.6227677464485168  0.7856828570365906  1.0000
  Co  Co12      1.0  0.6922049522399902  0.22330887615680695  0.39040225744247437  1.0000
  Fe  Fe7       1.0  0.6885615587234497  0.7262951731681824  0.8899149298667908  1.0000
