data_image0
_chemical_formula_structural       NGd3NTaGdN2GdN2
_chemical_formula_sum              "N6 Gd5 Ta1"
_cell_length_a       3.4183840985416647
_cell_length_b       5.98399180669286
_cell_length_c       9.122696876525879
_cell_angle_alpha    108.63244276011022
_cell_angle_beta     100.6865581080181
_cell_angle_gamma    89.90345067408815

_space_group_name_H-M_alt    "P 1"
_space_group_IT_number       1

loop_
  _space_group_symop_operation_xyz
  'x, y, z'

loop_
  _atom_site_type_symbol
  _atom_site_label
  _atom_site_symmetry_multiplicity
  _atom_site_fract_x
  _atom_site_fract_y
  _atom_site_fract_z
  _atom_site_occupancy
  N   N1        1.0  0.9065261483507087  0.0012879378454274141  0.7708883283192949  1.0000
  Gd  Gd1       1.0  0.9891618491833101  0.7425175902297119  0.9356372948100515  1.0000
  Gd  Gd2       1.0  0.8209124807705346  0.2406672381547558  0.5999382732143188  1.0000
  Gd  Gd3       1.0  0.15504597168991271  0.2435106492684363  0.26809251328658695  1.0000
  N   N2        1.0  0.7304036016995858  0.5163276791893233  0.41890597383832884  1.0000
  Ta  Ta1       1.0  0.6549219489036404  0.7438448671542993  0.2681159080320881  1.0000
  Gd  Gd4       1.0  0.3211290244122709  0.7436490658284797  0.6004667875267206  1.0000
  N   N3        1.0  0.2278450415179373  0.9625257848042538  0.41368603716594937  1.0000
  N   N4        1.0  0.4041909292406892  0.48506256966930417  0.7655203945001836  1.0000
  Gd  Gd5       1.0  0.48972347321529286  0.2459886066270141  0.9364110229687921  1.0000
  N   N5        1.0  0.08247337362411199  0.5243310932792014  0.1225817206863561  1.0000
  N   N6        1.0  0.5800437341614957  0.9698898204730196  0.11722319565972925  1.0000
