data_image0
_chemical_formula_structural       VFe2O2VOFFeO3F2FeO2F
_chemical_formula_sum              "V2 Fe4 O8 F4"
_cell_length_a       4.949430747181693
_cell_length_b       5.0898580982270385
_cell_length_c       8.369843482971191
_cell_angle_alpha    91.39399616116694
_cell_angle_beta     84.34526124259632
_cell_angle_gamma    82.3551768503327

_space_group_name_H-M_alt    "P 1"
_space_group_IT_number       1

loop_
  _space_group_symop_operation_xyz
  'x, y, z'

loop_
  _atom_site_type_symbol
  _atom_site_label
  _atom_site_symmetry_multiplicity
  _atom_site_fract_x
  _atom_site_fract_y
  _atom_site_fract_z
  _atom_site_occupancy
  V   V1        1.0  0.15733897645926856  0.08246925538276641  0.7348532080321203  1.0000
  Fe  Fe1       1.0  0.13041462015073815  0.5673643955407067  0.5417075153849042  1.0000
  Fe  Fe2       1.0  0.11372486615206444  0.7886068215057904  0.11476265603902573  1.0000
  O   O1        1.0  0.8832670452010211  0.9155077346821092  0.6060997242915531  1.0000
  O   O2        1.0  0.4398328661552569  0.10800931674997016  0.8527178169922416  1.0000
  V   V2        1.0  0.6534762376971771  0.733115731869491  0.8122427464394131  1.0000
  O   O3        1.0  0.37436786361328306  0.7265265589335463  0.6708938478166475  1.0000
  F   F1        1.0  0.3141848157152648  0.10954715960903824  0.15660291934214532  1.0000
  Fe  Fe3       1.0  0.6931436063332888  0.10414197990936072  0.4452701803474069  1.0000
  O   O4        1.0  0.3245063126521837  0.2096774280642067  0.5355952379607233  1.0000
  O   O5        1.0  0.919561564940584  0.9475071431208472  0.9176399112670613  1.0000
  O   O6        1.0  0.9189676641412593  0.4371335506089355  0.7487334614592405  1.0000
  F   F2        1.0  0.9274005291059928  0.4709126059267671  0.08901755525324292  1.0000
  F   F3        1.0  0.25913593208970687  0.664044916328061  0.32362026030061697  1.0000
  Fe  Fe4       1.0  0.6386338469220203  0.23665009488338898  0.050193264661581645  1.0000
  O   O7        1.0  0.7982781528478863  0.00795388885384539  0.2279727751582692  1.0000
  O   O8        1.0  0.45735457643107263  0.6020513769174707  0.9905065296256015  1.0000
  F   F4        1.0  0.8188470000853494  0.44383737379827765  0.43645179278517326  1.0000
