data_image0
_chemical_formula_structural       Fe2EuFe2OFe2O4FeO5
_chemical_formula_sum              "Fe7 Eu1 O10"
_cell_length_a       6.081569170282788
_cell_length_b       6.453601202686251
_cell_length_c       7.96205997467041
_cell_angle_alpha    80.39217249398166
_cell_angle_beta     102.84654295121234
_cell_angle_gamma    73.20592645172124

_space_group_name_H-M_alt    "P 1"
_space_group_IT_number       1

loop_
  _space_group_symop_operation_xyz
  'x, y, z'

loop_
  _atom_site_type_symbol
  _atom_site_label
  _atom_site_symmetry_multiplicity
  _atom_site_fract_x
  _atom_site_fract_y
  _atom_site_fract_z
  _atom_site_occupancy
  Fe  Fe1       1.0  0.5860251193258201  0.8261631132525643  0.8926549560118786  1.0000
  Fe  Fe2       1.0  0.7607700223608229  0.5649019479199606  0.6310047507015442  1.0000
  Eu  Eu1       1.0  0.6510345343622437  0.1108931371649412  0.5146269805328555  1.0000
  Fe  Fe3       1.0  0.289453626479819  0.6436589354032053  0.6942607172324293  1.0000
  Fe  Fe4       1.0  0.07885433752486853  0.6233617659983126  0.016210328417970574  1.0000
  O   O1        1.0  0.9632933139186396  0.4328414790905034  0.8770596387570181  1.0000
  Fe  Fe5       1.0  0.7967963814770267  0.2209892421790865  0.9311376808570938  1.0000
  Fe  Fe6       1.0  0.5937569730953285  0.4828799662838518  0.19064973325064963  1.0000
  O   O2        1.0  0.3064210122441819  0.46473762335621627  0.2695252603275112  1.0000
  O   O3        1.0  0.7161319261369868  0.21035425329398239  0.14656777714385277  1.0000
  O   O4        1.0  0.5541821115576411  0.37077513296280407  0.7026661037559431  1.0000
  O   O5        1.0  0.9544813034105855  0.7444874049788154  0.5438488726697231  1.0000
  Fe  Fe7       1.0  0.03676962079559494  0.5582839244949892  0.36934709588529707  1.0000
  O   O6        1.0  0.5020506376342737  0.8278931385800138  0.6302015782641739  1.0000
  O   O7        1.0  0.8635869032984966  0.9421734802914491  0.8717998862075447  1.0000
  O   O8        1.0  0.8032742738712791  0.6502082340670815  0.1324457975997489  1.0000
  O   O9        1.0  0.35673922264289915  0.6695747975694615  0.9496198295416269  1.0000
  O   O10       1.0  0.8040950294118612  0.4073320332231664  0.4473335746305709  1.0000
