data_image0
_chemical_formula_structural       Fe7N2FeC
_chemical_formula_sum              "Fe8 N2 C1"
_cell_length_a       4.278954787285573
_cell_length_b       5.425911391795824
_cell_length_c       5.511554718017578
_cell_angle_alpha    120.64671449236016
_cell_angle_beta     89.77927129434717
_cell_angle_gamma    90.44731160023461

_space_group_name_H-M_alt    "P 1"
_space_group_IT_number       1

loop_
  _space_group_symop_operation_xyz
  'x, y, z'

loop_
  _atom_site_type_symbol
  _atom_site_label
  _atom_site_symmetry_multiplicity
  _atom_site_fract_x
  _atom_site_fract_y
  _atom_site_fract_z
  _atom_site_occupancy
  Fe  Fe1       1.0  0.46111601562316673  0.7468635446254365  0.4681782132097625  1.0000
  Fe  Fe2       1.0  0.9658704990081214  0.41398808460314773  0.7988913064379487  1.0000
  Fe  Fe3       1.0  0.4678410296445179  0.2440746877339977  0.9725167157360098  1.0000
  Fe  Fe4       1.0  0.46914067883237026  0.7572573432501484  0.9715053435053838  1.0000
  Fe  Fe5       1.0  0.9582841406365838  0.40381452404020224  0.2954655875829029  1.0000
  Fe  Fe6       1.0  0.9607350817403145  0.9168949719232684  0.8088251939118051  1.0000
  Fe  Fe7       1.0  0.4670108857063926  0.2438989424479918  0.45777887121694344  1.0000
  N   N1        1.0  0.21330879594881266  0.5802202221715487  0.6331681604603818  1.0000
  N   N2        1.0  0.7137348064901055  0.080244675903964  0.6330329784376579  1.0000
  Fe  Fe8       1.0  0.9600004555668245  0.9172047375305019  0.29409238634377466  1.0000
  C   C1        1.0  0.2139429447484469  0.5799964065212841  0.13318188463511013  1.0000
