data_image0
_chemical_formula_structural       FeVFe2VFeCo4
_chemical_formula_sum              "Fe4 V2 Co4"
_cell_length_a       2.8723538051341304
_cell_length_b       4.6795434825324485
_cell_length_c       9.01526165008545
_cell_angle_alpha    90.34506366810689
_cell_angle_beta     90.00543933545674
_cell_angle_gamma    72.18479915737731

_space_group_name_H-M_alt    "P 1"
_space_group_IT_number       1

loop_
  _space_group_symop_operation_xyz
  'x, y, z'

loop_
  _atom_site_type_symbol
  _atom_site_label
  _atom_site_symmetry_multiplicity
  _atom_site_fract_x
  _atom_site_fract_y
  _atom_site_fract_z
  _atom_site_occupancy
  Fe  Fe1       1.0  0.8711594939968863  0.5235702984380757  0.7382597921864433  1.0000
  V   V1        1.0  0.3587483179682541  0.548260510815664  0.23319377026554072  1.0000
  Fe  Fe2       1.0  0.6600044382615825  0.9445804362785843  0.13258823781806497  1.0000
  Fe  Fe3       1.0  0.1747991010316149  0.9181246753293509  0.6387987132301152  1.0000
  V   V2        1.0  0.4770331982263392  0.3118405038336655  0.5391864176456822  1.0000
  Fe  Fe4       1.0  0.2658585594711189  0.7333233959385077  0.9359156486065311  1.0000
  Co  Co1       1.0  0.06044732845538705  0.14488110034326634  0.3337196114955407  1.0000
  Co  Co2       1.0  0.9636312133977021  0.33920487820987416  0.036189187479703566  1.0000
  Co  Co3       1.0  0.5696244839302318  0.12666030274745071  0.8344882131138893  1.0000
  Co  Co4       1.0  0.7761421209633776  0.7145935303377018  0.43659448633482484  1.0000
