data_image0
_chemical_formula_structural       Fe8CoFe6Co2Fe2
_chemical_formula_sum              "Fe16 Co3"
_cell_length_a       6.344446405146993
_cell_length_b       5.679244540956657
_cell_length_c       6.343923091888428
_cell_angle_alpha    89.99487986303565
_cell_angle_beta     90.08152080895083
_cell_angle_gamma    90.01745363837634

_space_group_name_H-M_alt    "P 1"
_space_group_IT_number       1

loop_
  _space_group_symop_operation_xyz
  'x, y, z'

loop_
  _atom_site_type_symbol
  _atom_site_label
  _atom_site_symmetry_multiplicity
  _atom_site_fract_x
  _atom_site_fract_y
  _atom_site_fract_z
  _atom_site_occupancy
  Fe  Fe1       1.0  0.021354444305669407  0.11891458963152973  0.6300331948971181  1.0000
  Fe  Fe2       1.0  0.6287563448396113  0.6076085575936898  0.8259207613884104  1.0000
  Fe  Fe3       1.0  0.42233642962686613  0.6122095588584295  0.42300579009435657  1.0000
  Fe  Fe4       1.0  0.8235729926956257  0.11873174488082429  0.2158866377685823  1.0000
  Fe  Fe5       1.0  0.21686953268196846  0.11908462634004965  0.020690138260265924  1.0000
  Fe  Fe6       1.0  0.12382054378031182  0.3619642856867525  0.3320531246439276  1.0000
  Fe  Fe7       1.0  0.02084499084518921  0.6076313264682431  0.630252122483442  1.0000
  Fe  Fe8       1.0  0.12047307198079849  0.8640753627885619  0.3236941698055406  1.0000
  Co  Co1       1.0  0.5145226712329471  0.36341515126499424  0.12404078249143144  1.0000
  Fe  Fe9       1.0  0.8242753751661205  0.607575893036282  0.21539774537408213  1.0000
  Fe  Fe10      1.0  0.7249075170140533  0.8637922406110669  0.522396207143483  1.0000
  Fe  Fe11      1.0  0.6285012961079846  0.11854585923255843  0.825332879846816  1.0000
  Fe  Fe12      1.0  0.5219067341352186  0.8642874948867614  0.12119641867815631  1.0000
  Fe  Fe13      1.0  0.2162606863714508  0.6072450884581293  0.02037066951937545  1.0000
  Fe  Fe14      1.0  0.32284584575600356  0.8645596508164243  0.7251058813761017  1.0000
  Co  Co2       1.0  0.33040964537032574  0.36327478223626314  0.7224513296095283  1.0000
  Co  Co3       1.0  0.42245599692187485  0.10956855913577973  0.42318815005136423  1.0000
  Fe  Fe15      1.0  0.7213589549653877  0.3619744173164934  0.5139889122632985  1.0000
  Fe  Fe16      1.0  0.9227337238621958  0.8634837277313014  0.9231424930679845  1.0000
