data_image0
_chemical_formula_structural       OFeOFe3OFeOFe
_chemical_formula_sum              "O4 Fe6"
_cell_length_a       2.9549285303928707
_cell_length_b       6.047756601415358
_cell_length_c       6.553466796875
_cell_angle_alpha    102.115877250182
_cell_angle_beta     103.03305582089325
_cell_angle_gamma    90.07212251190526

_space_group_name_H-M_alt    "P 1"
_space_group_IT_number       1

loop_
  _space_group_symop_operation_xyz
  'x, y, z'

loop_
  _atom_site_type_symbol
  _atom_site_label
  _atom_site_symmetry_multiplicity
  _atom_site_fract_x
  _atom_site_fract_y
  _atom_site_fract_z
  _atom_site_occupancy
  O   O1        1.0  0.2012352355986117  0.5369660254286911  0.6828075054459773  1.0000
  Fe  Fe1       1.0  0.01701288779242316  0.9129824631545295  0.3125159148142702  1.0000
  O   O2        1.0  0.537777125791278  0.19688448390264873  0.35469237019768807  1.0000
  Fe  Fe2       1.0  0.37595185647924984  0.07535617819606791  0.03063523747638558  1.0000
  Fe  Fe3       1.0  0.7006967075334136  0.27402275789092456  0.6800995475593882  1.0000
  Fe  Fe4       1.0  0.7007913601687669  0.7741550809975539  0.680442988786083  1.0000
  O   O3        1.0  0.8643921610601867  0.3502042884111106  0.00707471579511555  1.0000
  Fe  Fe5       1.0  0.02631655801302922  0.47323232874803256  0.33050841069313924  1.0000
  O   O4        1.0  0.20173666023264447  0.012018048600086819  0.6814333802047515  1.0000
  Fe  Fe6       1.0  0.38474097929569917  0.6342030159811642  0.04823373601757179  1.0000
