data_image0
_chemical_formula_structural       Fe16
_chemical_formula_sum              "Fe16"
_cell_length_a       5.697901770564021
_cell_length_b       5.693076623922489
_cell_length_c       5.689510822296143
_cell_angle_alpha    89.99607514586783
_cell_angle_beta     89.93756774360835
_cell_angle_gamma    90.00503635404239

_space_group_name_H-M_alt    "P 1"
_space_group_IT_number       1

loop_
  _space_group_symop_operation_xyz
  'x, y, z'

loop_
  _atom_site_type_symbol
  _atom_site_label
  _atom_site_symmetry_multiplicity
  _atom_site_fract_x
  _atom_site_fract_y
  _atom_site_fract_z
  _atom_site_occupancy
  Fe  Fe1       1.0  0.9011287690023384  0.49335956513512663  0.07657927279087413  1.0000
  Fe  Fe2       1.0  0.6491259929217309  0.24078686606129862  0.8284923431699325  1.0000
  Fe  Fe3       1.0  0.3973030145314766  0.49091535772220934  0.5771392575426287  1.0000
  Fe  Fe4       1.0  0.14630812323659256  0.7402374751971051  0.8251989477883355  1.0000
  Fe  Fe5       1.0  0.1464307013086351  0.23860719751002835  0.824981034016821  1.0000
  Fe  Fe6       1.0  0.8970243330870188  0.991293370506622  0.07354113400969418  1.0000
  Fe  Fe7       1.0  0.1499674314116179  0.741807102772114  0.3268526188565343  1.0000
  Fe  Fe8       1.0  0.899053276302715  0.49073103032318693  0.5740131734572567  1.0000
  Fe  Fe9       1.0  0.39410972576253955  0.9920114866142173  0.07404368339170352  1.0000
  Fe  Fe10      1.0  0.39657086175153117  0.9937141529755875  0.5763857958821812  1.0000
  Fe  Fe11      1.0  0.6478287585753824  0.7384397389747235  0.8254779569515648  1.0000
  Fe  Fe12      1.0  0.6470182540847634  0.2429197883593152  0.3256169264892059  1.0000
  Fe  Fe13      1.0  0.14967441477039234  0.24299912156219353  0.32457146086006944  1.0000
  Fe  Fe14      1.0  0.8939650651121162  0.9919760822073267  0.5740327837832995  1.0000
  Fe  Fe15      1.0  0.3987424374930813  0.489688992699462  0.07310617662192484  1.0000
  Fe  Fe16      1.0  0.6487346282873112  0.7396647936339296  0.3233008979261502  1.0000
