data_image0
_chemical_formula_structural       TaOEu2O3GdO2
_chemical_formula_sum              "Ta1 O6 Eu2 Gd1"
_cell_length_a       5.86319343432537
_cell_length_b       5.8624180938456885
_cell_length_c       5.974806785583496
_cell_angle_alpha    119.24767325515496
_cell_angle_beta     119.30757457573763
_cell_angle_gamma    89.83808545834434

_space_group_name_H-M_alt    "P 1"
_space_group_IT_number       1

loop_
  _space_group_symop_operation_xyz
  'x, y, z'

loop_
  _atom_site_type_symbol
  _atom_site_label
  _atom_site_symmetry_multiplicity
  _atom_site_fract_x
  _atom_site_fract_y
  _atom_site_fract_z
  _atom_site_occupancy
  Ta  Ta1       1.0  0.6780635704316353  0.015489638744853203  0.14546929201882092  1.0000
  O   O1        1.0  0.9804154045154082  0.17671051703481716  0.1441168191071393  1.0000
  Eu  Eu1       1.0  0.42823225153729333  0.2656093229592117  0.6452901951157014  1.0000
  Eu  Eu2       1.0  0.9279363148405346  0.765320956328979  0.6458199027095336  1.0000
  O   O2        1.0  0.3753782218662404  0.8546310067077354  0.14660476163088734  1.0000
  O   O3        1.0  0.8397298460684939  0.7127734427827891  0.14567488512514037  1.0000
  O   O4        1.0  0.44253784477554436  0.7803182609168592  0.6749199046767774  1.0000
  Gd  Gd1       1.0  0.17734742212126572  0.5162506706857715  0.14541319119941049  1.0000
  O   O5        1.0  0.5162488823105856  0.31880942082950375  0.14532804610501338  1.0000
  O   O6        1.0  0.9135742196098725  0.2507438359292968  0.6160099517442914  1.0000
