data_image0
_chemical_formula_structural       Mn3MoPdMnPd3MnPd
_chemical_formula_sum              "Mn5 Mo1 Pd5"
_cell_length_a       4.805031336154443
_cell_length_b       6.083647345485601
_cell_length_c       6.162370204925537
_cell_angle_alpha    108.37303886941922
_cell_angle_beta     105.0444149350559
_cell_angle_gamma    96.86443151011551

_space_group_name_H-M_alt    "P 1"
_space_group_IT_number       1

loop_
  _space_group_symop_operation_xyz
  'x, y, z'

loop_
  _atom_site_type_symbol
  _atom_site_label
  _atom_site_symmetry_multiplicity
  _atom_site_fract_x
  _atom_site_fract_y
  _atom_site_fract_z
  _atom_site_occupancy
  Mn  Mn1       1.0  0.1979453851169277  0.34168931820969517  0.1371050778001373  1.0000
  Mn  Mn2       1.0  0.47399061870922293  0.8059490914151456  0.22961334909473088  1.0000
  Mn  Mn3       1.0  0.10749211251787172  0.5245316625161127  0.774858177502893  1.0000
  Mo  Mo1       1.0  0.8328788278383742  0.06691715839737564  0.6772264843484047  1.0000
  Pd  Pd1       1.0  0.6504582162961307  0.43865191959254074  0.9561189420998278  1.0000
  Mn  Mn4       1.0  0.017187721328711984  0.7095651627693191  0.4067939219208586  1.0000
  Pd  Pd2       1.0  0.7486098995224804  0.2678290013057075  0.327475487966174  1.0000
  Pd  Pd3       1.0  0.3757365050956363  0.9713436955756318  0.8535668260630387  1.0000
  Pd  Pd4       1.0  0.9294179678421842  0.8861545918002568  0.041858649995000656  1.0000
  Mn  Mn5       1.0  0.561192334930567  0.6212547429518083  0.587080001863827  1.0000
  Pd  Pd5       1.0  0.28952512171304373  0.1649384349098903  0.501412212154006  1.0000
