data_image0
_chemical_formula_structural       FeCoFeCo
_chemical_formula_sum              "Fe2 Co2"
_cell_length_a       2.4835251622348555
_cell_length_b       4.6927251892073745
_cell_length_c       4.69618558883667
_cell_angle_alpha    115.84504750305959
_cell_angle_beta     99.90868029063277
_cell_angle_gamma    99.95358428301066

_space_group_name_H-M_alt    "P 1"
_space_group_IT_number       1

loop_
  _space_group_symop_operation_xyz
  'x, y, z'

loop_
  _atom_site_type_symbol
  _atom_site_label
  _atom_site_symmetry_multiplicity
  _atom_site_fract_x
  _atom_site_fract_y
  _atom_site_fract_z
  _atom_site_occupancy
  Fe  Fe1       1.0  0.5989979507648098  0.08934406199137646  0.72832936049913  1.0000
  Co  Co1       1.0  0.09956586951529597  0.08915489916843211  0.22870421501523347  1.0000
  Fe  Fe2       1.0  0.5994844425020475  0.5887935162424188  0.2284033734438557  1.0000
  Co  Co2       1.0  0.09876312192566959  0.5888895995333129  0.7280325292335794  1.0000
