data_image0
_chemical_formula_structural       Fe2MnFeMn2Fe6MnFe3
_chemical_formula_sum              "Fe12 Mn4"
_cell_length_a       4.29673332509829
_cell_length_b       4.9480973512412065
_cell_length_c       7.982125282287598
_cell_angle_alpha    89.95460906576126
_cell_angle_beta     90.02541080956792
_cell_angle_gamma    89.99533065525794

_space_group_name_H-M_alt    "P 1"
_space_group_IT_number       1

loop_
  _space_group_symop_operation_xyz
  'x, y, z'

loop_
  _atom_site_type_symbol
  _atom_site_label
  _atom_site_symmetry_multiplicity
  _atom_site_fract_x
  _atom_site_fract_y
  _atom_site_fract_z
  _atom_site_occupancy
  Fe  Fe1       1.0  0.5074036724093209  0.3669902685868657  0.46933501972035163  1.0000
  Fe  Fe2       1.0  0.34009662165381843  0.6145292520632458  0.7210260627793132  1.0000
  Mn  Mn1       1.0  0.671140491088482  0.6207863095990223  0.22141744155264723  1.0000
  Fe  Fe3       1.0  0.5034133198871489  0.8663631079383487  0.9697062378379265  1.0000
  Mn  Mn2       1.0  0.1712324322242994  0.3596778818436229  0.2211751190545216  1.0000
  Mn  Mn3       1.0  0.3395119901453863  0.12079713415898899  0.7216672892016335  1.0000
  Fe  Fe4       1.0  0.5030485398202709  0.8679249289581114  0.47333169004177333  1.0000
  Fe  Fe5       1.0  0.0032129665283759383  0.11383359070336153  0.4733812803965254  1.0000
  Fe  Fe6       1.0  0.506157755962597  0.3663981256435729  0.973603784568308  1.0000
  Fe  Fe7       1.0  0.0036754467475340912  0.11295954941745848  0.9701251985027498  1.0000
  Fe  Fe8       1.0  0.16976459408655922  0.8651977182098249  0.22174462670874612  1.0000
  Fe  Fe9       1.0  0.0069265623282584975  0.6126675601304297  0.4696298238378374  1.0000
  Mn  Mn4       1.0  0.839912592207033  0.8605479597948661  0.7218058707060996  1.0000
  Fe  Fe10      1.0  0.8402144916653068  0.36494719980938956  0.7216954833224346  1.0000
  Fe  Fe11      1.0  0.6693253517463293  0.11602540356996573  0.2216527758042224  1.0000
  Fe  Fe12      1.0  0.0068956784491845564  0.6128645530834688  0.9731670619536416  1.0000
