data_image0
_chemical_formula_structural       FeTeFeO2Fe2OFeO4FeOFeO2
_chemical_formula_sum              "Fe7 Te1 O10"
_cell_length_a       6.428671493389424
_cell_length_b       6.442811456297966
_cell_length_c       8.142300605773926
_cell_angle_alpha    108.82058833518138
_cell_angle_beta     108.17575664622278
_cell_angle_gamma    104.56566662569072

_space_group_name_H-M_alt    "P 1"
_space_group_IT_number       1

loop_
  _space_group_symop_operation_xyz
  'x, y, z'

loop_
  _atom_site_type_symbol
  _atom_site_label
  _atom_site_symmetry_multiplicity
  _atom_site_fract_x
  _atom_site_fract_y
  _atom_site_fract_z
  _atom_site_occupancy
  Fe  Fe1       1.0  0.21955148961325968  0.3180283609124533  0.9143078930735086  1.0000
  Te  Te1       1.0  0.24230714136704085  0.7624400265730009  0.7901136882222448  1.0000
  Fe  Fe2       1.0  0.7073403591212305  0.7779315107547334  0.1510886246703677  1.0000
  O   O1        1.0  0.40854901047476816  0.13120123714399157  0.880585074755194  1.0000
  O   O2        1.0  0.9071523545500095  0.6112496850286173  0.17168867583869094  1.0000
  Fe  Fe3       1.0  0.7103694670916445  0.8259645102103325  0.7142583130581107  1.0000
  Fe  Fe4       1.0  0.7687366009946508  0.24568071947209666  0.06740695238522057  1.0000
  O   O3        1.0  0.32574102303101815  0.6870096319222502  0.5598824028557916  1.0000
  Fe  Fe5       1.0  0.2580901085880928  0.7747303849078189  0.3173536961545364  1.0000
  O   O4        1.0  0.40506848730116085  0.61492484851904  0.13989850852365598  1.0000
  O   O5        1.0  0.589260875929191  0.7779938584763598  0.9061725738637192  1.0000
  O   O6        1.0  0.8547523611934453  0.12863576365865975  0.28752034908451757  1.0000
  O   O7        1.0  0.4142163106015372  0.1287876375476485  0.41822019249115044  1.0000
  Fe  Fe6       1.0  0.7535173297334157  0.29351317831687823  0.49471166701770647  1.0000
  O   O8        1.0  0.9359809162939146  0.14806719044621877  0.9073644276041913  1.0000
  Fe  Fe7       1.0  0.21328760719099504  0.2958692311051621  0.46745610290984885  1.0000
  O   O9        1.0  0.11351534009072355  0.3752582070978192  0.6889957781215502  1.0000
  O   O10       1.0  0.8807161452417612  0.6578781606468282  0.5950288178288631  1.0000
