data_image0
_chemical_formula_structural       Co4ZrCo4
_chemical_formula_sum              "Co8 Zr1"
_cell_length_a       3.623949054284008
_cell_length_b       5.75471931158593
_cell_length_c       5.7545881271362305
_cell_angle_alpha    84.27666570251164
_cell_angle_beta     71.6450834878523
_cell_angle_gamma    71.63490014590343

_space_group_name_H-M_alt    "P 1"
_space_group_IT_number       1

loop_
  _space_group_symop_operation_xyz
  'x, y, z'

loop_
  _atom_site_type_symbol
  _atom_site_label
  _atom_site_symmetry_multiplicity
  _atom_site_fract_x
  _atom_site_fract_y
  _atom_site_fract_z
  _atom_site_occupancy
  Co  Co1       1.0  0.07907742323720071  0.16985860504631697  0.3812864419996886  1.0000
  Co  Co2       1.0  0.4138675619240872  0.15393061937358157  0.7273650163323815  1.0000
  Co  Co3       1.0  0.7330923081676276  0.16959483896873928  0.07331704420588804  1.0000
  Co  Co4       1.0  0.051783039236693786  0.8778875464859984  0.7274245022645499  1.0000
  Zr  Zr1       1.0  0.733152984643677  0.5158073896533217  0.7275793562662342  1.0000
  Co  Co5       1.0  0.413662672544182  0.5163198109064284  0.36519703294307015  1.0000
  Co  Co6       1.0  0.051946500343690215  0.5158098944048065  0.08933553164331022  1.0000
  Co  Co7       1.0  0.3867360642301538  0.8618606322844132  0.07341846184452726  1.0000
  Co  Co8       1.0  0.7326803813187007  0.8620085719154129  0.3814809013939351  1.0000
