data_image0
_chemical_formula_structural       Fe4CoFeCo6
_chemical_formula_sum              "Fe5 Co7"
_cell_length_a       2.8524544687422893
_cell_length_b       5.6839354230008565
_cell_length_c       8.491974830627441
_cell_angle_alpha    90.33810365969468
_cell_angle_beta     90.01015899530353
_cell_angle_gamma    90.00545982536256

_space_group_name_H-M_alt    "P 1"
_space_group_IT_number       1

loop_
  _space_group_symop_operation_xyz
  'x, y, z'

loop_
  _atom_site_type_symbol
  _atom_site_label
  _atom_site_symmetry_multiplicity
  _atom_site_fract_x
  _atom_site_fract_y
  _atom_site_fract_z
  _atom_site_occupancy
  Fe  Fe1       1.0  0.5286172612521484  0.9728901393393344  0.2904324824939888  1.0000
  Fe  Fe2       1.0  0.5285477026693934  0.4683564298576997  0.9604763388454539  1.0000
  Fe  Fe3       1.0  0.5285903827935413  0.46578714234032476  0.6257132288316913  1.0000
  Fe  Fe4       1.0  0.5286681069522767  0.9696304202717646  0.9565271736393035  1.0000
  Co  Co1       1.0  0.028727400338180612  0.21805056926756586  0.12431073197872632  1.0000
  Fe  Fe5       1.0  0.028596569245601847  0.7189822204847371  0.4581365882254461  1.0000
  Co  Co2       1.0  0.02860023086057515  0.7162330157561755  0.793398380448967  1.0000
  Co  Co3       1.0  0.028620293866642308  0.21911647960306388  0.45851817770913084  1.0000
  Co  Co4       1.0  0.028648875041632525  0.7216665746490194  0.12309884319968367  1.0000
  Co  Co5       1.0  0.028370425958845348  0.21952405642674758  0.7920710438665678  1.0000
  Co  Co6       1.0  0.5286651866284825  0.9646812085328359  0.6222493055600199  1.0000
  Co  Co7       1.0  0.5285438303992622  0.47329547944634953  0.2940815690791341  1.0000
