data_image0
_chemical_formula_structural       CoGdCo3GdCo5
_chemical_formula_sum              "Co9 Gd2"
_cell_length_a       3.9018528670996364
_cell_length_b       6.85986009968252
_cell_length_c       6.857542514801025
_cell_angle_alpha    120.03030322934595
_cell_angle_beta     90.00593793888653
_cell_angle_gamma    90.03458375255127

_space_group_name_H-M_alt    "P 1"
_space_group_IT_number       1

loop_
  _space_group_symop_operation_xyz
  'x, y, z'

loop_
  _atom_site_type_symbol
  _atom_site_label
  _atom_site_symmetry_multiplicity
  _atom_site_fract_x
  _atom_site_fract_y
  _atom_site_fract_z
  _atom_site_occupancy
  Co  Co1       1.0  0.15378059530674912  0.21046888910273748  0.6095575688556591  1.0000
  Gd  Gd1       1.0  0.15369007094925885  0.8778191201548402  0.13930690321508224  1.0000
  Co  Co2       1.0  0.6541068542660363  0.9631628997432969  0.5592572100123548  1.0000
  Co  Co3       1.0  0.6538571124916107  0.21123436016918895  0.055369823535048907  1.0000
  Co  Co4       1.0  0.6542277347462387  0.8142679328938771  0.8065735702339258  1.0000
  Gd  Gd2       1.0  0.15373158503393725  0.5436081295884257  0.4740166971773994  1.0000
  Co  Co5       1.0  0.15391229196615058  0.01334498508795105  0.806456983064485  1.0000
  Co  Co6       1.0  0.6541908980705585  0.21077226021835602  0.41039580077047666  1.0000
  Co  Co7       1.0  0.6539186840550877  0.4598314160806246  0.8073418134382037  1.0000
  Co  Co8       1.0  0.6538894775223391  0.6079609388041712  0.20395582883453206  1.0000
  Co  Co9       1.0  0.15370227511331724  0.40907555876151586  0.005244151489845105  1.0000
