# generated using pymatgen
data_K10Na2Sr2CaLaGdCrSi5AgW4O37F6
_symmetry_space_group_name_H-M   'P 1'
_cell_length_a   4.15510988
_cell_length_b   7.13186741
_cell_length_c   9.11912632
_cell_angle_alpha   106.39878082
_cell_angle_beta   105.92355347
_cell_angle_gamma   89.44393921
_symmetry_Int_Tables_number   1
_chemical_formula_structural   K10Na2Sr2CaLaGdCrSi5AgW4O37F6
_chemical_formula_sum
'K10 Na2 Sr2 Ca1 La1 Gd1 Cr1 Si5 Ag1 W4 O37 F6'
_cell_volume   248.61965617
_cell_formula_units_Z   1
loop_
 _symmetry_equiv_pos_site_id
 _symmetry_equiv_pos_as_xyz
  1  'x, y, z'
loop_
 _atom_site_type_symbol
 _atom_site_label
 _atom_site_symmetry_multiplicity
 _atom_site_fract_x
 _atom_site_fract_y
 _atom_site_fract_z
 _atom_site_occupancy
  O  O0  1  0.79048049  0.49457470  0.17394878  1
  K  K1  1  0.64165455  0.87661082  0.86648142  1
  La  La2  1  0.97598857  0.04736379  0.52990401  1
  O  O3  1  0.14587598  0.59371132  0.87771320  1
  K  K4  1  0.30167732  0.21248953  0.19205081  1
  Sr  Sr5  1  0.64176840  0.38095704  0.86370635  1
  O  O6  1  0.48733634  0.25451118  0.54535842  1
  O  O7  1  0.12787615  0.16320011  0.83799368  1
  K  K8  1  0.96853638  0.54981655  0.53256011  1
  O  O9  1  0.46523219  0.83491260  0.51676404  1
  Sr  Sr10  1  0.30130348  0.71005768  0.19297974  1
  O  O11  1  0.81864202  0.92703718  0.22639158  1
  K  K12  1  0.47508290  0.17768766  0.37176621  1
  O  O13  1  0.86649883  0.51869947  0.41410509  1
  K  K14  1  0.29262057  0.52027357  0.90980136  1
  Si  Si15  1  0.00609690  0.71678698  0.31472546  1
  F  F16  1  0.15576479  0.45999369  0.63655311  1
  Si  Si17  1  0.71073407  0.97915685  0.74863046  1
  F  F18  1  0.71190161  0.30562359  0.05134811  1
  Si  Si19  1  0.87663227  0.04206518  0.04873043  1
  F  F20  1  0.15437901  0.09863606  0.06071572  1
  F  F21  1  0.44555452  0.00633649  0.79843527  1
  O  O22  1  0.13020167  0.89169037  0.40819651  1
  O  O23  1  0.75513816  0.24486749  0.65842998  1
  O  O24  1  0.81668347  0.86247414  0.19206315  1
  O  O25  1  0.74146062  0.74562669  0.65130341  1
  O  O26  1  0.86732054  0.90950292  0.89718539  1
  Si  Si27  1  0.87053150  0.50052643  0.59163374  1
  F  F28  1  0.21160357  0.56084985  0.21477672  1
  O  O29  1  0.60347492  0.04134383  0.73392308  1
  Na  Na30  1  0.59969795  0.04021543  0.45337346  1
  Na  Na31  1  0.09929557  0.53692794  0.95424861  1
  O  O32  1  0.86305058  0.77075309  0.45406452  1
  O  O33  1  0.36778212  0.80188769  0.94882065  1
  O  O34  1  0.33657485  0.30509958  0.45655954  1
  K  K35  1  0.10194737  0.03873263  0.20474400  1
  K  K36  1  0.60499036  0.53612155  0.70037121  1
  O  O37  1  0.33862928  0.76756179  0.45510161  1
  O  O38  1  0.09729402  0.53954339  0.67511678  1
  O  O39  1  0.84207398  0.80246711  0.95152992  1
  W  W40  1  0.10035555  0.53927356  0.45639309  1
  O  O41  1  0.37029120  0.27512234  0.95069224  1
  W  W42  1  0.60240155  0.03935422  0.95009482  1
  O  O43  1  0.85958874  0.30472144  0.45234671  1
  K  K44  1  0.10105741  0.03918455  0.70210522  1
  O  O45  1  0.10026662  0.53688121  0.22868659  1
  O  O46  1  0.83997589  0.28020093  0.95665085  1
  K  K47  1  0.59803230  0.54537809  0.20578490  1
  O  O48  1  0.60690475  0.03435544  0.17381133  1
  O  O49  1  0.26475400  0.28045326  0.12204462  1
  W  W50  1  0.73828840  0.75047278  0.91320193  1
  O  O51  1  0.46294954  0.73128378  0.19365287  1
  W  W52  1  0.01430755  0.28474906  0.41499805  1
  O  O53  1  0.72419077  0.17426227  0.71707535  1
  O  O54  1  0.59017354  0.77299994  0.68341935  1
  O  O55  1  0.83604723  0.35754034  0.12091857  1
  Ca  Ca56  1  0.10498190  0.97598040  0.11459994  1
  Gd  Gd57  1  0.39403254  0.52160722  0.66057563  1
  O  O58  1  0.90947849  0.68084776  0.20350450  1
  O  O59  1  0.04484441  0.85603327  0.60952282  1
  O  O60  1  0.18098812  0.26623943  0.63807201  1
  O  O61  1  0.78214312  0.77908844  0.81545734  1
  Ag  Ag62  1  0.64244586  0.64861977  0.39865378  1
  F  F63  1  0.17947592  0.50014925  0.99866849  1
  O  O64  1  0.26653686  0.96343863  0.84442389  1
  Si  Si65  1  0.10856351  0.71180665  0.79219139  1
  O  O66  1  0.14999385  0.66212559  0.52972734  1
  Cr  Cr67  1  0.59325212  0.01673687  0.85996258  1
  O  O68  1  0.67240471  0.23590720  0.65547740  1
  O  O69  1  0.64714795  0.04715151  0.11945915  1
  K  K70  1  0.14815655  0.18099989  0.35570782  1
