# generated using pymatgen
data_CeY4Mg3TiZnGaFe4Co8Re2Ag3HN7O18F13
_symmetry_space_group_name_H-M   'P 1'
_cell_length_a   5.77787256
_cell_length_b   5.78773308
_cell_length_c   6.32254696
_cell_angle_alpha   106.57270813
_cell_angle_beta   83.77281189
_cell_angle_gamma   88.57794189
_symmetry_Int_Tables_number   1
_chemical_formula_structural   CeY4Mg3TiZnGaFe4Co8Re2Ag3HN7O18F13
_chemical_formula_sum
'Ce1 Y4 Mg3 Ti1 Zn1 Ga1 Fe4 Co8 Re2 Ag3 H1 N7 O18 F13'
_cell_volume   201.10685677
_cell_formula_units_Z   1
loop_
 _symmetry_equiv_pos_site_id
 _symmetry_equiv_pos_as_xyz
  1  'x, y, z'
loop_
 _atom_site_type_symbol
 _atom_site_label
 _atom_site_symmetry_multiplicity
 _atom_site_fract_x
 _atom_site_fract_y
 _atom_site_fract_z
 _atom_site_occupancy
  Y  Y0  1  0.71784967  0.40076023  0.03213772  1
  Ce  Ce1  1  0.96426326  0.94158202  0.63466507  1
  Y  Y2  1  0.43983069  0.91767138  0.89188325  1
  Mg  Mg3  1  0.70524168  0.41011858  0.49832302  1
  N  N4  1  0.84490389  0.66968983  0.33427545  1
  N  N5  1  0.58940810  0.18034776  0.70142692  1
  Mg  Mg6  1  0.25292841  0.40813377  0.76926136  1
  Mg  Mg7  1  0.97840875  0.93251711  0.16098316  1
  N  N8  1  0.33631817  0.66783088  0.07193375  1
  Y  Y9  1  0.21073265  0.42818946  0.27839223  1
  N  N10  1  0.34406191  0.66619736  0.58797109  1
  N  N11  1  0.09424237  0.16211389  0.95206255  1
  N  N12  1  0.08650749  0.17343393  0.46235245  1
  N  N13  1  0.60383946  0.16656744  0.20557113  1
  Y  Y14  1  0.47610736  0.91660988  0.39112020  1
  F  F15  1  0.64433724  0.62705654  0.03675715  1
  Fe  Fe16  1  0.85709780  0.39723498  0.17087318  1
  O  O17  1  0.63070315  0.10769209  0.04675966  1
  Re  Re18  1  0.33820236  0.06494005  0.85123330  1
  O  O19  1  0.61555082  0.46946585  0.41551507  1
  O  O20  1  0.05743652  0.17051649  0.31209657  1
  Fe  Fe21  1  0.81839454  0.23405348  0.54765701  1
  O  O22  1  0.03395013  0.99079365  0.65401405  1
  Fe  Fe23  1  0.87437028  0.90396541  0.14850289  1
  Fe  Fe24  1  0.32982403  0.56037664  0.84173656  1
  O  O25  1  0.00710305  0.71965557  0.31988382  1
  O  O26  1  0.53457928  0.79185104  0.73226631  1
  H  H27  1  0.25073093  0.22634007  0.34238428  1
  O  O28  1  0.16638128  0.85582107  0.97146952  1
  O  O29  1  0.03486786  0.53327191  0.65967971  1
  O  O30  1  0.15888943  0.33320767  0.97476047  1
  O  O31  1  0.50916475  0.26603186  0.73082179  1
  Re  Re32  1  0.82762253  0.70778924  0.53531051  1
  F  F33  1  0.54429269  0.79390723  0.68866211  1
  F  F34  1  0.43823332  0.79916900  0.21023978  1
  Zn  Zn35  1  0.22420159  0.79358488  0.90034962  1
  Ga  Ga36  1  0.72132242  0.79043603  0.40081501  1
  F  F37  1  0.01249187  0.79771227  0.58419013  1
  F  F38  1  0.72496837  0.29634976  0.40082142  1
  F  F39  1  0.22546764  0.29901043  0.89891791  1
  F  F40  1  0.90264666  0.80106235  0.10673022  1
  F  F41  1  0.31369099  0.05317062  0.89385623  1
  Ag  Ag42  1  0.72643280  0.73915505  0.08115992  1
  F  F43  1  0.97875476  0.06209471  0.66043663  1
  Ti  Ti44  1  0.21799445  0.26392737  0.56385994  1
  F  F45  1  0.53138030  0.04583974  0.36159980  1
  Ag  Ag46  1  0.03635028  0.86835843  0.33843622  1
  F  F47  1  0.41904992  0.49117678  0.47789699  1
  F  F48  1  0.89547336  0.50171363  0.75384521  1
  F  F49  1  0.10840473  0.45587477  0.25481242  1
  Ag  Ag50  1  0.53391767  0.32916015  0.89309776  1
  Co  Co51  1  0.88890421  0.53499645  0.60000527  1
  O  O52  1  0.89240193  0.78398860  0.84946692  1
  O  O53  1  0.38919976  0.53998590  0.09839550  1
  Co  Co54  1  0.38975650  0.78243601  0.34913167  1
  O  O55  1  0.88516927  0.78522491  0.34753913  1
  Co  Co56  1  0.88610435  0.03944939  0.59818095  1
  O  O57  1  0.38406569  0.03597522  0.60361153  1
  O  O58  1  0.89108247  0.28016567  0.85070843  1
  Co  Co59  1  0.38376677  0.78373420  0.84766394  1
  Co  Co60  1  0.38953739  0.28039679  0.34968641  1
  Co  Co61  1  0.88729924  0.03529208  0.10165782  1
  O  O62  1  0.39003077  0.53479820  0.59470969  1
  O  O63  1  0.38617113  0.03350532  0.09461856  1
  Co  Co64  1  0.39306709  0.28968599  0.84899056  1
  Co  Co65  1  0.89154732  0.53525400  0.09902022  1
  O  O66  1  0.88720185  0.27960336  0.35069102  1
