# generated using pymatgen
data_Cs2KRb6Li2AcYMg3Ti2TlCoSiBiSbAsHWSeClO28
_symmetry_space_group_name_H-M   'P 1'
_cell_length_a   6.19659805
_cell_length_b   6.36089897
_cell_length_c   8.49795151
_cell_angle_alpha   93.65718842
_cell_angle_beta   93.44322205
_cell_angle_gamma   90.87302399
_symmetry_Int_Tables_number   1
_chemical_formula_structural
Cs2KRb6Li2AcYMg3Ti2TlCoSiBiSbAsHWSeClO28
_chemical_formula_sum
;
Cs2 Rb6 K1 Li2 Ac1 Y1 Mg3 Ti2 Tl1 Co1 Si1 Bi1 Sb1 As1 H1 W1 Se1 Cl1
O28
;
_cell_volume   333.60802437
_cell_formula_units_Z   1
loop_
 _symmetry_equiv_pos_site_id
 _symmetry_equiv_pos_as_xyz
  1  'x, y, z'
loop_
 _atom_site_type_symbol
 _atom_site_label
 _atom_site_symmetry_multiplicity
 _atom_site_fract_x
 _atom_site_fract_y
 _atom_site_fract_z
 _atom_site_occupancy
  Rb  Rb0  1  0.60469073  0.86365002  0.09006987  1
  Rb  Rb1  1  0.07617553  0.35581073  0.47500575  1
  Rb  Rb2  1  0.13460954  0.36881483  0.02446761  1
  O  O3  1  0.18302241  0.09975146  0.73458272  1
  As  As4  1  0.04852572  0.85734206  0.75427115  1
  O  O5  1  0.61990100  0.36334389  0.09469753  1
  O  O6  1  0.19772011  0.63204300  0.74233323  1
  Cl  Cl7  1  0.09256520  0.86740255  0.24328320  1
  Se  Se8  1  0.58951271  0.36745554  0.32234496  1
  Rb  Rb9  1  0.47928759  0.86022407  0.52239525  1
  O  O10  1  0.77456594  0.85043424  0.78747845  1
  Rb  Rb11  1  0.59800625  0.35641497  0.77294213  1
  Cs  Cs12  1  0.88869596  0.29670215  0.82057369  1
  O  O13  1  0.89432907  0.30246001  0.31428817  1
  Mg  Mg14  1  0.69785041  0.09707880  0.40789142  1
  Cs  Cs15  1  0.32275870  0.71873862  0.56852651  1
  O  O16  1  0.38967186  0.29375547  0.31299946  1
  O  O17  1  0.61242515  0.01466999  0.67658269  1
  K  K18  1  0.47765651  0.88363403  0.04864642  1
  W  W19  1  0.08845957  0.49176627  0.23208192  1
  O  O20  1  0.90009302  0.79216039  0.31074029  1
  O  O21  1  0.17353360  0.58108002  0.97310853  1
  Y  Y22  1  0.22401929  0.94151694  0.81872588  1
  O  O23  1  0.45298767  0.17755100  0.59243661  1
  Bi  Bi24  1  0.23504971  0.38566673  0.35131028  1
  O  O25  1  0.18659896  0.73716706  0.50794911  1
  Ac  Ac26  1  0.71326631  0.89346796  0.31368423  1
  O  O27  1  0.69077224  0.45285273  0.23556344  1
  Tl  Tl28  1  0.72039258  0.43852735  0.85007012  1
  O  O29  1  0.73096788  0.83896244  0.89838010  1
  O  O30  1  0.21185382  0.06271680  0.16640683  1
  H  H31  1  0.43599692  0.79486150  0.25626761  1
  Si  Si32  1  0.82549143  0.66397488  0.01752412  1
  O  O33  1  0.61928165  0.92174220  0.22248444  1
  O  O34  1  0.96502846  0.86221415  0.84569812  1
  Li  Li35  1  0.19622256  0.58273631  0.60392290  1
  Li  Li36  1  0.72024083  0.06760080  0.61262441  1
  Mg  Mg37  1  0.32956740  0.17966743  0.04268341  1
  O  O38  1  0.13204336  0.53389919  0.22790903  1
  O  O39  1  0.52462059  0.39167339  0.83466488  1
  Rb  Rb40  1  0.75356805  0.45345366  0.48470396  1
  O  O41  1  0.08914413  0.78469789  0.82992268  1
  Sb  Sb42  1  0.83142895  0.03679748  0.80702502  1
  O  O43  1  0.09649220  0.28897297  0.85044795  1
  Ti  Ti44  1  0.34498617  0.50693935  0.79250973  1
  O  O45  1  0.26393157  0.45339277  0.51643026  1
  O  O46  1  0.76183569  0.95107818  0.50697517  1
  O  O47  1  0.92311519  0.09549695  0.13877715  1
  Co  Co48  1  0.17674959  0.86220038  0.13585274  1
  O  O49  1  0.41545060  0.08943208  0.18718679  1
  O  O50  1  0.59604514  0.28314930  0.82040817  1
  O  O51  1  0.42459726  0.63405383  0.14197788  1
  O  O52  1  0.59833258  0.79241908  0.85535777  1
  Mg  Mg53  1  0.19513705  0.37990281  0.18618441  1
  O  O54  1  0.95728731  0.66543502  0.19569147  1
  Ti  Ti55  1  0.69113779  0.86935782  0.19052771  1
