# generated using pymatgen
data_Ba5SrLa2Gd2Tm2Ga4Si3B2AsPPt4CS14I3NO2
_symmetry_space_group_name_H-M   'P 1'
_cell_length_a   5.11456823
_cell_length_b   5.07620716
_cell_length_c   7.05868673
_cell_angle_alpha   70.18124390
_cell_angle_beta   69.13948822
_cell_angle_gamma   60.55068588
_symmetry_Int_Tables_number   1
_chemical_formula_structural   Ba5SrLa2Gd2Tm2Ga4Si3B2AsPPt4CS14I3NO2
_chemical_formula_sum
'Ba5 Sr1 La2 Gd2 Tm2 Ga4 Si3 B2 As1 P1 Pt4 C1 S14 I3 N1 O2'
_cell_volume   146.06315454
_cell_formula_units_Z   1
loop_
 _symmetry_equiv_pos_site_id
 _symmetry_equiv_pos_as_xyz
  1  'x, y, z'
loop_
 _atom_site_type_symbol
 _atom_site_label
 _atom_site_symmetry_multiplicity
 _atom_site_fract_x
 _atom_site_fract_y
 _atom_site_fract_z
 _atom_site_occupancy
  S  S0  1  0.98518258  0.40259916  0.18914104  1
  Gd  Gd1  1  0.60882783  0.03567201  0.30183309  1
  S  S2  1  0.23778115  0.66540724  0.41522491  1
  Gd  Gd3  1  0.11080727  0.53045452  0.80264091  1
  S  S4  1  0.48592332  0.89662170  0.68552291  1
  S  S5  1  0.74088573  0.15846694  0.91262615  1
  Pt  Pt6  1  0.36182794  0.78105807  0.04529086  1
  Pt  Pt7  1  0.86183590  0.28366709  0.55114877  1
  B  B8  1  0.20416610  0.81198066  0.29402435  1
  S  S9  1  0.05638130  0.65136617  0.29373083  1
  S  S10  1  0.42256439  0.74593675  0.14568859  1
  S  S11  1  0.65082121  0.51983362  0.62590158  1
  Ba  Ba12  1  0.57701087  0.18856736  0.30743217  1
  S  S13  1  0.53554338  0.15211837  0.80177492  1
  Ba  Ba14  1  0.07270657  0.67781365  0.80240595  1
  S  S15  1  0.13133921  0.03257003  0.44148833  1
  S  S16  1  0.92716497  0.22055124  0.93729579  1
  B  B17  1  0.70605195  0.30470955  0.79062229  1
  S  S18  1  0.65107667  0.19079049  0.31141421  1
  S  S19  1  0.86604536  0.71176523  0.06027159  1
  O  O20  1  0.69714379  0.82365108  0.67623568  1
  La  La21  1  0.18053767  0.29911846  0.55409563  1
  N  N22  1  0.18255608  0.81651068  0.64098161  1
  S  S23  1  0.20157397  0.36954817  0.90680879  1
  O  O24  1  0.69399869  0.35385278  0.68241006  1
  La  La25  1  0.52849430  0.03195776  0.91074711  1
  P  P26  1  0.87471521  0.67797154  0.69247407  1
  As  As27  1  0.64491236  0.75524324  0.29799017  1
  Pt  Pt28  1  0.00451101  0.24138221  0.46656713  1
  Tm  Tm29  1  0.44895089  0.74654114  0.57213569  1
  Ga  Ga30  1  0.87410665  0.24094021  0.73880637  1
  Ga  Ga31  1  0.07419993  0.74278706  0.31631169  1
  Tm  Tm32  1  0.19731371  0.24672426  0.05106378  1
  Ga  Ga33  1  0.78692394  0.74500370  0.87874436  1
  Ga  Ga34  1  0.58511585  0.24044566  0.30507913  1
  Pt  Pt35  1  0.63869298  0.75431997  0.15430364  1
  Si  Si36  1  0.09073552  0.34161124  0.33837494  1
  I  I37  1  0.67820382  0.49448088  0.86410290  1
  Ba  Ba38  1  0.65522760  0.43428510  0.64017057  1
  C  C39  1  0.95570755  0.06843220  0.32004017  1
  Ba  Ba40  1  0.39943165  0.96817571  0.19777186  1
  Si  Si41  1  0.34881029  0.85309744  0.64128679  1
  Si  Si42  1  0.93070447  0.99979669  0.66677833  1
  Ba  Ba43  1  0.36223415  0.88453400  0.43342558  1
  S  S44  1  0.64013225  0.43704811  0.42580023  1
  I  I45  1  0.66498953  0.50024050  0.19941443  1
  Sr  Sr46  1  0.39206827  0.93390089  0.84349132  1
  I  I47  1  0.94759572  0.05066257  0.01549292  1
