# generated using pymatgen
data_Cs2K2Na2Sr2Li6CaNdEuTi2Mn3Fe3Ag2Sb3O23F20
_symmetry_space_group_name_H-M   'P 1'
_cell_length_a   4.87255812
_cell_length_b   6.16130209
_cell_length_c   8.69777489
_cell_angle_alpha   82.62377167
_cell_angle_beta   85.96931458
_cell_angle_gamma   85.10387421
_symmetry_Int_Tables_number   1
_chemical_formula_structural
Cs2K2Na2Sr2Li6CaNdEuTi2Mn3Fe3Ag2Sb3O23F20
_chemical_formula_sum
'Cs2 K2 Na2 Sr2 Li6 Ca1 Nd1 Eu1 Ti2 Mn3 Fe3 Ag2 Sb3 O23 F20'
_cell_volume   257.54715254
_cell_formula_units_Z   1
loop_
 _symmetry_equiv_pos_site_id
 _symmetry_equiv_pos_as_xyz
  1  'x, y, z'
loop_
 _atom_site_type_symbol
 _atom_site_label
 _atom_site_symmetry_multiplicity
 _atom_site_fract_x
 _atom_site_fract_y
 _atom_site_fract_z
 _atom_site_occupancy
  Ti  Ti0  1  0.67625511  0.14593820  0.60601759  1
  O  O1  1  0.49758849  0.07744031  0.83991265  1
  O  O2  1  0.34943202  0.67862451  0.87940067  1
  O  O3  1  0.50677329  0.40885308  0.52100664  1
  Mn  Mn4  1  0.18665496  0.29920402  0.45185062  1
  O  O5  1  0.88926101  0.83434516  0.71184289  1
  Li  Li6  1  0.70030141  0.52911419  0.30599394  1
  Li  Li7  1  0.04540866  0.51202977  0.80081481  1
  O  O8  1  0.35290229  0.00013888  0.55612248  1
  Ti  Ti9  1  0.67651653  0.78797323  0.95170909  1
  O  O10  1  0.88724500  0.13992123  0.40174890  1
  O  O11  1  0.98473328  0.94552481  0.99263048  1
  Li  Li12  1  0.06682976  0.82861274  0.46600682  1
  O  O13  1  0.98789680  0.25635567  0.69473183  1
  Mn  Mn14  1  0.17964421  0.97120744  0.78007644  1
  Mn  Mn15  1  0.17961079  0.65547800  0.11184800  1
  O  O16  1  0.05548433  0.58665556  0.34000489  1
  O  O17  1  0.87177420  0.52386189  0.03063767  1
  Na  Na18  1  0.72951919  0.14951538  0.12259917  1
  O  O19  1  0.50774789  0.77404869  0.15838054  1
  Fe  Fe20  1  0.83925110  0.59465498  0.01571536  1
  Ca  Ca21  1  0.33831620  0.59317386  0.02204254  1
  O  O22  1  0.96723759  0.15890975  0.65744597  1
  O  O23  1  0.70108348  0.42311543  0.38814861  1
  Sb  Sb24  1  0.33643550  0.59107155  0.51983035  1
  Sb  Sb25  1  0.84073377  0.09317007  0.01709735  1
  O  O26  1  0.41653842  0.76264507  0.59610766  1
  O  O27  1  0.76645714  0.42058325  0.93286872  1
  Li  Li28  1  0.83873618  0.09192926  0.51937222  1
  O  O29  1  0.70956564  0.02891206  0.37849635  1
  O  O30  1  0.21781719  0.41527420  0.88267386  1
  Fe  Fe31  1  0.34480095  0.09018571  0.51473796  1
  Fe  Fe32  1  0.33719984  0.09301165  0.02156053  1
  O  O33  1  0.46340811  0.76280266  0.15223873  1
  O  O34  1  0.92697573  0.76227248  0.09782910  1
  O  O35  1  0.20113474  0.02618424  0.90084529  1
  Eu  Eu36  1  0.83859205  0.59402716  0.51655865  1
  O  O37  1  0.48343977  0.15158708  0.13403049  1
  O  O38  1  0.98014867  0.75827032  0.64030331  1
  O  O39  1  0.26210561  0.42193305  0.43715185  1
  F  F40  1  0.44497278  0.62014228  0.41606969  1
  F  F41  1  0.94892001  0.62163872  0.91481817  1
  F  F42  1  0.44860408  0.62256604  0.91623586  1
  F  F43  1  0.94663113  0.12345188  0.41388360  1
  Sr  Sr44  1  0.69718271  0.37496626  0.16448751  1
  Cs  Cs45  1  0.94843459  0.62412333  0.41473567  1
  F  F46  1  0.94743091  0.12199050  0.91445410  1
  Sr  Sr47  1  0.19824806  0.87282443  0.66615272  1
  F  F48  1  0.44400606  0.12581614  0.41688788  1
  Cs  Cs49  1  0.44883433  0.12441887  0.90979195  1
  F  F50  1  0.02807733  0.23503374  0.30358994  1
  Ag  Ag51  1  0.22004893  0.89624363  0.57213700  1
  Li  Li52  1  0.79649580  0.33873567  0.53656763  1
  Nd  Nd53  1  0.79174048  0.00560381  0.19196628  1
  F  F54  1  0.52620673  0.36617398  0.12346056  1
  F  F55  1  0.99482942  0.66893947  0.43061978  1
  F  F56  1  0.63119680  0.03347231  0.56296235  1
  F  F57  1  0.92492998  0.24093421  0.81364155  1
  Ag  Ag58  1  0.31328514  0.23982947  0.89161456  1
  F  F59  1  0.45664346  0.86149937  0.12397656  1
  Li  Li60  1  0.23776175  0.56136757  0.20872051  1
  Na  Na61  1  0.71498019  0.65603530  0.82752860  1
  F  F62  1  0.50636888  0.53964424  0.60706508  1
  F  F63  1  0.02146037  0.72551650  0.98463619  1
  F  F64  1  0.92453653  0.46575692  0.68041319  1
  K  K65  1  0.41567856  0.96077478  0.67075640  1
  K  K66  1  0.42649305  0.46239486  0.18366933  1
  F  F67  1  0.91949672  0.96330833  0.17823857  1
  F  F68  1  0.92146617  0.98976266  0.65813267  1
  Sb  Sb69  1  0.91839725  0.21054098  0.42501342  1
  F  F70  1  0.92190289  0.43638659  0.20185661  1
  F  F71  1  0.36687210  0.43640310  0.65454000  1
  F  F72  1  0.47440341  0.98626494  0.20327482  1
