# generated using pymatgen
data_CsK5NaSrLi2TmTi2Mn2VCuPH3WClO15F14
_symmetry_space_group_name_H-M   'P 1'
_cell_length_a   5.98933172
_cell_length_b   6.34596920
_cell_length_c   7.88683271
_cell_angle_alpha   82.46167755
_cell_angle_beta   93.14611816
_cell_angle_gamma   90.42332458
_symmetry_Int_Tables_number   1
_chemical_formula_structural   CsK5NaSrLi2TmTi2Mn2VCuPH3WClO15F14
_chemical_formula_sum
'Cs1 K5 Na1 Sr1 Li2 Tm1 Ti2 Mn2 V1 Cu1 P1 H3 W1 Cl1 O15 F14'
_cell_volume   296.72498676
_cell_formula_units_Z   1
loop_
 _symmetry_equiv_pos_site_id
 _symmetry_equiv_pos_as_xyz
  1  'x, y, z'
loop_
 _atom_site_type_symbol
 _atom_site_label
 _atom_site_symmetry_multiplicity
 _atom_site_fract_x
 _atom_site_fract_y
 _atom_site_fract_z
 _atom_site_occupancy
  Ti  Ti0  1  0.72548866  0.01472777  0.20999563  1
  K  K1  1  0.70510423  0.01686881  0.71074873  1
  O  O2  1  0.81320643  0.18333185  0.03193336  1
  K  K3  1  0.35867646  0.51307446  0.20665912  1
  O  O4  1  0.26033035  0.67170912  0.51734108  1
  Mn  Mn5  1  0.21942911  0.01671759  0.45777649  1
  O  O6  1  0.90277195  0.06832040  0.39886791  1
  O  O7  1  0.16245465  0.58245838  0.88993222  1
  K  K8  1  0.21634409  0.02005167  0.96480131  1
  O  O9  1  0.31608880  0.21076779  0.66182148  1
  O  O10  1  0.75018537  0.72066736  0.15873748  1
  K  K11  1  0.85343575  0.52181023  0.46059531  1
  O  O12  1  0.45099708  0.08079797  0.25857219  1
  Mn  Mn13  1  0.83926260  0.51381171  0.95836389  1
  Ti  Ti14  1  0.33306816  0.50908995  0.70720136  1
  O  O15  1  0.62058210  0.57816964  0.75378650  1
  F  F16  1  0.45252556  0.10683577  0.28495502  1
  Li  Li17  1  0.95237595  0.10774075  0.29453439  1
  F  F18  1  0.94659865  0.10939217  0.78794801  1
  Sr  Sr19  1  0.45282018  0.61039311  0.78666091  1
  F  F20  1  0.94769752  0.61244941  0.29264924  1
  O  O21  1  0.86480176  0.31006747  0.63151681  1
  Cu  Cu22  1  0.72752225  0.09852584  0.45872653  1
  O  O23  1  0.08311073  0.91352433  0.46245781  1
  O  O24  1  0.24909678  0.85249847  0.98404658  1
  Na  Na25  1  0.96937251  0.61266524  0.27150446  1
  O  O26  1  0.47615808  0.28442472  0.91391569  1
  P  P27  1  0.75456166  0.34697708  0.87193090  1
  F  F28  1  0.69717836  0.64222890  0.85091829  1
  O  O29  1  0.59780031  0.88358921  0.30671751  1
  H  H30  1  0.29102302  0.24612994  0.56338799  1
  H  H31  1  0.39635026  0.75068110  0.94343257  1
  V  V32  1  0.31028053  0.05663343  0.18502444  1
  O  O33  1  0.38484472  0.27120844  0.40001044  1
  H  H34  1  0.13156235  0.88561201  0.64379108  1
  O  O35  1  0.94899231  0.27430964  0.07805419  1
  F  F36  1  0.93622339  0.28534409  0.09607133  1
  Li  Li37  1  0.58631009  0.39226717  0.19201905  1
  Tm  Tm38  1  0.28054744  0.10967101  0.91515851  1
  F  F39  1  0.46534830  0.28862861  0.55425709  1
  F  F40  1  0.45451540  0.74829370  0.09730464  1
  F  F41  1  0.46314970  0.25733754  0.05448759  1
  Cs  Cs42  1  0.79238784  0.65581483  0.47583809  1
  Cl  Cl43  1  0.09601679  0.91851264  0.72963071  1
  F  F44  1  0.96452719  0.36878508  0.46205482  1
  F  F45  1  0.16479759  0.16635084  0.91880327  1
  F  F46  1  0.60205227  0.36618891  0.12779671  1
  F  F47  1  0.80458200  0.81033933  0.91939336  1
  W  W48  1  0.88439381  0.09039815  0.19245699  1
  F  F49  1  0.60157424  0.01874796  0.46716684  1
  K  K50  1  0.38059965  0.58976614  0.69373775  1
  F  F51  1  0.16257045  0.81758207  0.25487715  1
