# generated using pymatgen
data_Na3La2HoMgScU2PaAl2Zn2Cd2BiB2SbAs3PRuPtCSe4S19N7ClO4
_symmetry_space_group_name_H-M   'P 1'
_cell_length_a   5.14198351
_cell_length_b   6.12207842
_cell_length_c   6.60817671
_cell_angle_alpha   84.47502899
_cell_angle_beta   82.72527313
_cell_angle_gamma   85.29515076
_symmetry_Int_Tables_number   1
_chemical_formula_structural
Na3La2HoMgScU2PaAl2Zn2Cd2BiB2SbAs3PRuPtCSe4S19N7ClO4
_chemical_formula_sum
;
Na3 La2 Ho1 Mg1 Sc1 U2 Pa1 Al2 Zn2 Cd2 Bi1 B2 Sb1 As3 P1 Ru1 Pt1 Se4
C1 S19 N7 Cl1 O4
;
_cell_volume   204.87545568
_cell_formula_units_Z   1
loop_
 _symmetry_equiv_pos_site_id
 _symmetry_equiv_pos_as_xyz
  1  'x, y, z'
loop_
 _atom_site_type_symbol
 _atom_site_label
 _atom_site_symmetry_multiplicity
 _atom_site_fract_x
 _atom_site_fract_y
 _atom_site_fract_z
 _atom_site_occupancy
  Se  Se0  1  0.74104244  0.55829608  0.69424146  1
  Cd  Cd1  1  0.24519159  0.00847233  0.92813331  1
  Se  Se2  1  0.22719739  0.64333004  0.21099803  1
  Se  Se3  1  0.73406214  0.22422591  0.99954319  1
  Pa  Pa4  1  0.72451925  0.37694529  0.35906112  1
  Pt  Pt5  1  0.24619880  0.70790982  0.56737703  1
  Se  Se6  1  0.21886235  0.11520062  0.52304029  1
  S  S7  1  0.55447769  0.01449325  0.51939088  1
  Cd  Cd8  1  0.55515856  0.24085106  0.24276952  1
  S  S9  1  0.05710632  0.89977908  0.17694174  1
  Mg  Mg10  1  0.05658751  0.64245874  0.95437449  1
  S  S11  1  0.07188249  0.56717867  0.32961547  1
  Bi  Bi12  1  0.55986327  0.23012027  0.78148454  1
  O  O13  1  0.55581194  0.45383576  0.99551499  1
  O  O14  1  0.06080270  0.96601719  0.82184315  1
  O  O15  1  0.05859574  0.48604375  0.73267794  1
  Zn  Zn16  1  0.06909551  0.76761240  0.57831413  1
  U  U17  1  0.23891480  0.74070972  0.90222573  1
  S  S18  1  0.55494702  0.00557091  0.28124148  1
  As  As19  1  0.80219674  0.13590057  0.68660617  1
  Na  Na20  1  0.26055726  0.40259898  0.46375948  1
  S  S21  1  0.17813434  0.81205046  0.49833724  1
  S  S22  1  0.24485517  0.45957083  0.06153536  1
  S  S23  1  0.21928564  0.10742912  0.89605671  1
  S  S24  1  0.68122470  0.52530676  0.58575612  1
  U  U25  1  0.67115355  0.81870818  0.47876742  1
  S  S26  1  0.78927690  0.50970435  0.85527110  1
  As  As27  1  0.40816298  0.79222852  0.20503154  1
  S  S28  1  0.73314041  0.14905229  0.50172943  1
  S  S29  1  0.69527125  0.80455142  0.03601167  1
  As  As30  1  0.89441615  0.28252718  0.98718405  1
  S  S31  1  0.66163653  0.58485699  0.30951124  1
  S  S32  1  0.70114577  0.86419970  0.73811781  1
  N  N33  1  0.72730559  0.40567133  0.65839058  1
  Na  Na34  1  0.70155615  0.95779949  0.13718896  1
  N  N35  1  0.51236933  0.53221416  0.93890887  1
  B  B36  1  0.95371258  0.41568646  0.62311339  1
  Sb  Sb37  1  0.21017410  0.42901281  0.05048195  1
  Ru  Ru38  1  0.39777341  0.29489121  0.42154467  1
  Na  Na39  1  0.31902459  0.83739954  0.54209673  1
  B  B40  1  0.49802533  0.46289900  0.75010043  1
  Cl  Cl41  1  0.98400617  0.01461376  0.82190520  1
  N  N42  1  0.48568189  0.41638374  0.27643028  1
  N  N43  1  0.23224181  0.46928912  0.61018980  1
  N  N44  1  0.25111029  0.00648942  0.32107174  1
  Ho  Ho45  1  0.03128958  0.02771130  0.03643454  1
  La  La46  1  0.23602614  0.68337029  0.21325755  1
  S  S47  1  0.47934213  0.86448622  0.58372128  1
  S  S48  1  0.11234922  0.33578983  0.37598574  1
  S  S49  1  0.12409569  0.68142694  0.81947696  1
  S  S50  1  0.95091200  0.82129544  0.41659087  1
  Al  Al51  1  0.19651993  0.90777993  0.65817899  1
  La  La52  1  0.84134978  0.23355426  0.61473870  1
  S  S53  1  0.22948352  0.23440777  0.82252347  1
  O  O54  1  0.47721845  0.47774792  0.22655885  1
  C  C55  1  0.68938202  0.79500473  0.99762875  1
  N  N56  1  0.56501955  0.38368177  0.53909308  1
  N  N57  1  0.36061645  0.06789919  0.21282852  1
  S  S58  1  0.81640267  0.33175591  0.00125770  1
  Sc  Sc59  1  0.47092551  0.58500475  0.74963856  1
  Zn  Zn60  1  0.59576416  0.03527405  0.08214916  1
  Al  Al61  1  0.71266663  0.61512882  0.14133507  1
  P  P62  1  0.40984520  0.30554813  0.34879100  1
