# generated using pymatgen
data_K2RbGdU8CrGaSi2Ni2Te10P4PdRu2AuCl7
_symmetry_space_group_name_H-M   'P 1'
_cell_length_a   4.07229900
_cell_length_b   4.32061529
_cell_length_c   4.85554743
_cell_angle_alpha   93.07030487
_cell_angle_beta   88.81633759
_cell_angle_gamma   97.76748657
_symmetry_Int_Tables_number   1
_chemical_formula_structural   K2RbGdU8CrGaSi2Ni2Te10P4PdRu2AuCl7
_chemical_formula_sum
'K2 Rb1 Gd1 U8 Cr1 Ga1 Si2 Ni2 Te10 P4 Ru2 Pd1 Au1 Cl7'
_cell_volume   84.51941569
_cell_formula_units_Z   1
loop_
 _symmetry_equiv_pos_site_id
 _symmetry_equiv_pos_as_xyz
  1  'x, y, z'
loop_
 _atom_site_type_symbol
 _atom_site_label
 _atom_site_symmetry_multiplicity
 _atom_site_fract_x
 _atom_site_fract_y
 _atom_site_fract_z
 _atom_site_occupancy
  Si  Si0  1  0.50131047  0.66168267  0.01368557  1
  Ni  Ni1  1  0.00002849  0.66497427  0.26142532  1
  Ni  Ni2  1  0.49768931  0.16651411  0.26609591  1
  Si  Si3  1  0.49684796  0.66581565  0.51940107  1
  Gd  Gd4  1  0.98570544  0.16822961  0.75775594  1
  K  K5  1  0.20213422  0.86276823  0.07650892  1
  Cl  Cl6  1  0.69392717  0.59428638  0.31222588  1
  Cl  Cl7  1  0.69450867  0.59686106  0.84915304  1
  Cl  Cl8  1  0.69675100  0.12587880  0.84771293  1
  Cl  Cl9  1  0.69934267  0.12817879  0.30778649  1
  Au  Au10  1  0.69854355  0.36271104  0.07924630  1
  K  K11  1  0.19810082  0.36210507  0.57931662  1
  Cl  Cl12  1  0.74988562  0.27478352  0.23582587  1
  Cl  Cl13  1  0.25054264  0.27607065  0.70395648  1
  Cl  Cl14  1  0.25352362  0.77578455  0.22732405  1
  Ga  Ga15  1  0.25010183  0.27520370  0.31596351  1
  Rb  Rb16  1  0.74417496  0.77001053  0.80150491  1
  P  P17  1  0.40168792  0.04910807  0.03526723  1
  U  U18  1  0.39986169  0.54308355  0.27066064  1
  P  P19  1  0.90613955  0.53787619  0.03011786  1
  Cr  Cr20  1  0.64895529  0.79432720  0.77390009  1
  P  P21  1  0.40127578  0.05068740  0.50794905  1
  U  U22  1  0.90481848  0.04812460  0.27144724  1
  Ru  Ru23  1  0.15220314  0.79744935  0.77124971  1
  P  P24  1  0.90457112  0.54772162  0.51055264  1
  Ru  Ru25  1  0.65572965  0.29469433  0.77331889  1
  Te  Te26  1  0.13844627  0.47838387  0.60656452  1
  Pd  Pd27  1  0.38615644  0.21877812  0.34870183  1
  U  U28  1  0.63102365  0.60217923  0.72779435  1
  U  U29  1  0.13950907  0.22400075  0.73413789  1
  Te  Te30  1  0.63748085  0.47364455  0.34468749  1
  Te  Te31  1  0.63886595  0.21901977  0.60385215  1
  Te  Te32  1  0.38064969  0.54877681  0.01123236  1
  U  U33  1  0.62813210  0.21450223  0.95765507  1
  Te  Te34  1  0.13405590  0.21915062  0.08690272  1
  Te  Te35  1  0.88751525  0.88335305  0.67624545  1
  Te  Te36  1  0.12991719  0.96570355  0.34678718  1
  U  U37  1  0.63511282  0.83366239  0.34450576  1
  Te  Te38  1  0.63628179  0.95844096  0.08723113  1
  U  U39  1  0.13699548  0.83780122  0.96318626  1
  Te  Te40  1  0.38344020  0.88501096  0.68001282  1
  Te  Te41  1  0.88479519  0.55116552  0.01291250  1
  U  U42  1  0.13719475  0.60956627  0.34528807  1
