# generated using pymatgen
data_Cs2K4Ba3Na2LiCaHoU3Cu2Ag4GeAs2PRuPtS19Cl7O10
_symmetry_space_group_name_H-M   'P 1'
_cell_length_a   6.16562462
_cell_length_b   6.47381926
_cell_length_c   7.14673281
_cell_angle_alpha   115.88598633
_cell_angle_beta   99.69436646
_cell_angle_gamma   91.25775909
_symmetry_Int_Tables_number   1
_chemical_formula_structural
Cs2K4Ba3Na2LiCaHoU3Cu2Ag4GeAs2PRuPtS19Cl7O10
_chemical_formula_sum
'Cs2 K4 Ba3 Na2 Li1 Ca1 Ho1 U3 Cu2 Ag4 Ge1 As2 P1 Ru1 Pt1 S19 Cl7 O10'
_cell_volume   251.50592218
_cell_formula_units_Z   1
loop_
 _symmetry_equiv_pos_site_id
 _symmetry_equiv_pos_as_xyz
  1  'x, y, z'
loop_
 _atom_site_type_symbol
 _atom_site_label
 _atom_site_symmetry_multiplicity
 _atom_site_fract_x
 _atom_site_fract_y
 _atom_site_fract_z
 _atom_site_occupancy
  O  O0  1  0.55989343  0.96080810  0.99804324  1
  K  K1  1  0.88572323  0.65315259  0.04251325  1
  Cs  Cs2  1  0.42210406  0.87978041  0.38612360  1
  O  O3  1  0.06685554  0.75457525  0.79155111  1
  Cs  Cs4  1  0.90074539  0.33757362  0.37951741  1
  K  K5  1  0.39678803  0.54213464  0.72148311  1
  O  O6  1  0.20238872  0.20003158  0.83219838  1
  O  O7  1  0.93334228  0.90948248  0.46222067  1
  O  O8  1  0.33390534  0.33105427  0.28689986  1
  As  As9  1  0.42816111  0.22556341  0.04629686  1
  As  As10  1  0.96926421  0.99875724  0.74508828  1
  O  O11  1  0.57357395  0.42210656  0.03396182  1
  S  S12  1  0.27701873  0.15770556  0.46426764  1
  S  S13  1  0.57074594  0.40150544  0.12194952  1
  S  S14  1  0.76701963  0.12495746  0.47889966  1
  Na  Na15  1  0.01775365  0.63234752  0.46641156  1
  S  S16  1  0.96866274  0.86073875  0.81518292  1
  S  S17  1  0.42870221  0.76549846  0.82711625  1
  Ag  Ag18  1  0.69344676  0.31238711  0.80444390  1
  S  S19  1  0.12391013  0.52584594  0.12079987  1
  Ag  Ag20  1  0.85672915  0.97083884  0.13912487  1
  U  U21  1  0.35552895  0.97415292  0.14290902  1
  Ho  Ho22  1  0.18414797  0.30224216  0.80068666  1
  Ag  Ag23  1  0.52439314  0.64047080  0.47363764  1
  Cl  Cl24  1  0.63528043  0.84585035  0.58964771  1
  K  K25  1  0.13836858  0.34567681  0.58706975  1
  Cl  Cl26  1  0.63355368  0.35367912  0.08380634  1
  Cl  Cl27  1  0.63502431  0.34869605  0.59337407  1
  Cl  Cl28  1  0.13847166  0.84209639  0.08660609  1
  Ag  Ag29  1  0.39127442  0.59181583  0.83556151  1
  Cl  Cl30  1  0.13933159  0.84665340  0.59177929  1
  K  K31  1  0.63842368  0.84490091  0.09097570  1
  Cl  Cl32  1  0.14055747  0.34993687  0.08603910  1
  Na  Na33  1  0.88331991  0.09906715  0.33808148  1
  Pt  Pt34  1  0.97486508  0.33773187  0.22191121  1
  S  S35  1  0.20668408  0.73598897  0.35303327  1
  S  S36  1  0.77013826  0.28827649  0.51694649  1
  S  S37  1  0.04449992  0.93506891  0.73673409  1
  Ba  Ba38  1  0.48507214  0.01730370  0.43140388  1
  U  U39  1  0.20484447  0.69378752  0.99560916  1
  S  S40  1  0.93965793  0.06565970  0.13604790  1
  Cl  Cl41  1  0.48605326  0.01008385  0.93581378  1
  S  S42  1  0.20057569  0.42837372  0.72004914  1
  S  S43  1  0.61793935  0.64457929  0.66911191  1
  Ge  Ge44  1  0.99744701  0.69017470  0.63409531  1
  U  U45  1  0.76963151  0.31984779  0.88732833  1
  S  S46  1  0.35272601  0.38568047  0.20698622  1
  S  S47  1  0.76389611  0.61063063  0.14857376  1
  Ru  Ru48  1  0.49956945  0.50938237  0.43341157  1
  Cu  Cu49  1  0.23688805  0.48640823  0.77349663  1
  Li  Li50  1  0.74116713  0.02278373  0.75243962  1
  S  S51  1  0.48128188  0.39836758  0.38205174  1
  O  O52  1  0.97002172  0.71906710  0.70023346  1
  Ca  Ca53  1  0.62755853  0.49818474  0.57181591  1
  O  O54  1  0.38231632  0.16664119  0.68163568  1
  Ba  Ba55  1  0.84710419  0.65741658  0.01980627  1
  P  P56  1  0.11688327  0.92339385  0.63038027  1
  S  S57  1  0.42911124  0.86229414  0.18166161  1
  O  O58  1  0.85661405  0.06159641  0.57584906  1
  S  S59  1  0.44635364  0.91348958  0.87717223  1
  Ba  Ba60  1  0.95587516  0.88175410  0.37578964  1
  S  S61  1  0.16981633  0.19914931  0.89530170  1
  O  O62  1  0.19588870  0.69369191  0.55436939  1
  Cu  Cu63  1  0.34527132  0.36141095  0.22563267  1
  S  S64  1  0.81822389  0.25468510  0.18019822  1
