# generated using pymatgen
data_Rb2NaLi3CaSmGdUMn3VCuNi2AgB2SbAsP3WSeN2Cl3O29
_symmetry_space_group_name_H-M   'P 1'
_cell_length_a   4.56108952
_cell_length_b   6.09635592
_cell_length_c   6.38895559
_cell_angle_alpha   74.45690918
_cell_angle_beta   68.76097870
_cell_angle_gamma   76.86793518
_symmetry_Int_Tables_number   1
_chemical_formula_structural
Rb2NaLi3CaSmGdUMn3VCuNi2AgB2SbAsP3WSeN2Cl3O29
_chemical_formula_sum
;
Rb2 Na1 Li3 Ca1 Sm1 Gd1 U1 Mn3 V1 Cu1 Ni2 Ag1 B2 Sb1 As1 P3 W1 Se1 N2
Cl3 O29
;
_cell_volume   157.84555611
_cell_formula_units_Z   1
loop_
 _symmetry_equiv_pos_site_id
 _symmetry_equiv_pos_as_xyz
  1  'x, y, z'
loop_
 _atom_site_type_symbol
 _atom_site_label
 _atom_site_symmetry_multiplicity
 _atom_site_fract_x
 _atom_site_fract_y
 _atom_site_fract_z
 _atom_site_occupancy
  N  N0  1  0.50280708  0.56712961  0.59069341  1
  Li  Li1  1  0.63596302  0.17821190  0.69964290  1
  O  O2  1  0.84360576  0.99174964  0.48448890  1
  Li  Li3  1  0.33600071  0.51188523  0.98218012  1
  O  O4  1  0.50283265  0.04605235  0.11933857  1
  N  N5  1  0.84287554  0.43801320  0.05019337  1
  O  O6  1  0.13911450  0.71631968  0.18440202  1
  U  U7  1  0.98815310  0.08258928  0.12402368  1
  Li  Li8  1  0.35010520  0.94864941  0.54988283  1
  Sm  Sm9  1  0.98916191  0.56144863  0.61947775  1
  O  O10  1  0.14057739  0.14212695  0.76449442  1
  Mn  Mn11  1  0.63737160  0.66354978  0.22377986  1
  O  O12  1  0.44478235  0.44661006  0.26698247  1
  W  W13  1  0.96056342  0.50439358  0.85480011  1
  O  O14  1  0.96981090  0.69125402  0.25644130  1
  O  O15  1  0.46510279  0.00519849  0.82346123  1
  O  O16  1  0.75777274  0.66399026  0.78582585  1
  O  O17  1  0.69470173  0.31197464  0.84761018  1
  P  P18  1  0.45259953  0.26300716  0.95049477  1
  Na  Na19  1  0.95312327  0.96071827  0.75875998  1
  Rb  Rb20  1  0.44959050  0.95601106  0.29080468  1
  Ni  Ni21  1  0.49817324  0.67006063  0.64146602  1
  Ni  Ni22  1  0.10536650  0.50001413  0.35225943  1
  O  O23  1  0.19669896  0.62826335  0.73853314  1
  Cl  Cl24  1  0.94185328  0.20371848  0.31399632  1
  O  O25  1  0.20371471  0.29508361  0.84435719  1
  O  O26  1  0.95307463  0.78792286  0.29850858  1
  Mn  Mn27  1  0.32978773  0.35769343  0.11222951  1
  O  O28  1  0.76382989  0.77523804  0.93577862  1
  O  O29  1  0.36589298  0.38728011  0.78030521  1
  O  O30  1  0.52390540  0.63232207  0.21022040  1
  O  O31  1  0.67696738  0.11269344  0.71829754  1
  O  O32  1  0.39051956  0.22072102  0.42104420  1
  O  O33  1  0.76524627  0.41925329  0.56467319  1
  V  V34  1  0.51660526  0.93552047  0.84165150  1
  Ag  Ag35  1  0.05851037  0.60361236  0.62789243  1
  O  O36  1  0.34084392  0.03964858  0.03733134  1
  P  P37  1  0.80858964  0.65821183  0.14354430  1
  Mn  Mn38  1  0.33293140  0.91004163  0.33239588  1
  O  O39  1  0.33373302  0.82863486  0.64439374  1
  P  P40  1  0.54365444  0.29503131  0.62171984  1
  O  O41  1  0.94960475  0.46857992  0.09951399  1
  O  O42  1  0.60140282  0.49047789  0.93582225  1
  Cl  Cl43  1  0.59816790  0.00745367  0.70257384  1
  O  O44  1  0.60616124  0.08002061  0.13809735  1
  O  O45  1  0.37895122  0.53735709  0.23631871  1
  Cu  Cu46  1  0.10798515  0.42651668  0.35599056  1
  Ca  Ca47  1  0.61043501  0.83681631  0.35609847  1
  As  As48  1  0.60655355  0.38129723  0.13069063  1
  Sb  Sb49  1  0.59056711  0.41232413  0.70624131  1
  Rb  Rb50  1  0.10229371  0.84603751  0.99322909  1
  O  O51  1  0.84206915  0.54256725  0.22655760  1
  Cl  Cl52  1  0.10331758  0.02867512  0.38402268  1
  Se  Se53  1  0.08789666  0.52407289  0.62904716  1
  O  O54  1  0.91771775  0.22922330  0.02790968  1
  B  B55  1  0.52255899  0.77362978  0.49081239  1
  B  B56  1  0.72191334  0.29676825  0.25367486  1
  O  O57  1  0.61524719  0.64039350  0.27918258  1
  Gd  Gd58  1  0.63054597  0.98090273  0.87046146  1
  O  O59  1  0.33854398  0.67946196  0.72491574  1
  O  O60  1  0.60352969  0.07756720  0.45279616  1
