# generated using pymatgen
data_RbBaSr2CeCdSiSnHgGeTe6AsPIrPt6S18I
_symmetry_space_group_name_H-M   'P 1'
_cell_length_a   4.76554441
_cell_length_b   4.83491564
_cell_length_c   5.56133699
_cell_angle_alpha   69.60999298
_cell_angle_beta   68.80445862
_cell_angle_gamma   73.15543365
_symmetry_Int_Tables_number   1
_chemical_formula_structural   RbBaSr2CeCdSiSnHgGeTe6AsPIrPt6S18I
_chemical_formula_sum
'Rb1 Ba1 Sr2 Ce1 Cd1 Si1 Sn1 Hg1 Ge1 Te6 As1 P1 Ir1 Pt6 S18 I1'
_cell_volume   109.99999189
_cell_formula_units_Z   1
loop_
 _symmetry_equiv_pos_site_id
 _symmetry_equiv_pos_as_xyz
  1  'x, y, z'
loop_
 _atom_site_type_symbol
 _atom_site_label
 _atom_site_symmetry_multiplicity
 _atom_site_fract_x
 _atom_site_fract_y
 _atom_site_fract_z
 _atom_site_occupancy
  Sn  Sn0  1  0.11153537  0.05466056  0.93590432  1
  S  S1  1  0.27041897  0.16903973  0.52120811  1
  Sr  Sr2  1  0.65101075  0.57295430  0.46606058  1
  S  S3  1  0.79197598  0.67721289  0.96761620  1
  S  S4  1  0.23695703  0.81697440  0.00225696  1
  S  S5  1  0.35887024  0.31211814  0.86272520  1
  Pt  Pt6  1  0.46545675  0.00988974  0.10876206  1
  S  S7  1  0.67313868  0.44382942  0.23492949  1
  S  S8  1  0.29720467  0.11100634  0.43689638  1
  S  S9  1  0.68818212  0.91333675  0.80348951  1
  Ir  Ir10  1  0.58518124  0.21464458  0.56853747  1
  Pt  Pt11  1  0.52448225  0.60823870  0.84018332  1
  S  S12  1  0.35852867  0.77531981  0.46073738  1
  Hg  Hg13  1  0.02335509  0.60985780  0.34180743  1
  S  S14  1  0.75955951  0.12094066  0.24550161  1
  S  S15  1  0.81227976  0.41081983  0.67647737  1
  I  I16  1  0.58822548  0.07817248  0.34974864  1
  Cd  Cd17  1  0.57753628  0.59666055  0.46371356  1
  P  P18  1  0.07992294  0.60372698  0.57073456  1
  Rb  Rb19  1  0.08485495  0.57033455  0.20387653  1
  As  As20  1  0.58795214  0.17561068  0.95484310  1
  S  S21  1  0.58524430  0.54062504  0.99376208  1
  S  S22  1  0.08224389  0.05630203  0.02043374  1
  Sr  Sr23  1  0.08267337  0.11377431  0.57762605  1
  Ba  Ba24  1  0.07597161  0.66824311  0.82437444  1
  S  S25  1  0.57675034  0.10203307  0.76730400  1
  S  S26  1  0.90694791  0.82952893  0.12310581  1
  Ce  Ce27  1  0.48934495  0.07463282  0.30625096  1
  S  S28  1  0.11930522  0.13027106  0.54713875  1
  S  S29  1  0.54923797  0.59009737  0.42057508  1
  S  S30  1  0.36243746  0.30722937  0.02063790  1
  S  S31  1  0.22555277  0.67463923  0.78087145  1
  Ge  Ge32  1  0.81014490  0.53645104  0.94130880  1
  Si  Si33  1  0.11863565  0.48859647  0.55039388  1
  Te  Te34  1  0.56871772  0.41963330  0.57750511  1
  Te  Te35  1  0.06985918  0.58498842  0.08038473  1
  Te  Te36  1  0.41018826  0.91503233  0.08391267  1
  Pt  Pt37  1  0.15809712  0.33143514  0.83812857  1
  Te  Te38  1  0.24172753  0.08483879  0.58370179  1
  Te  Te39  1  0.91957629  0.74226636  0.57516700  1
  Te  Te40  1  0.74228144  0.24321745  0.08291715  1
  Pt  Pt41  1  0.83026630  0.99950272  0.81682920  1
  Pt  Pt42  1  0.33219346  0.49497724  0.31823295  1
  Pt  Pt43  1  0.64908624  0.82947564  0.34183776  1
