# generated using pymatgen
data_K2Rb2NaLi3Ce4PrSm4EuDy3LuTiAl3CoS13O20F9
_symmetry_space_group_name_H-M   'P 1'
_cell_length_a   5.60534811
_cell_length_b   6.22073364
_cell_length_c   6.32433081
_cell_angle_alpha   91.13249969
_cell_angle_beta   69.24311829
_cell_angle_gamma   68.66735840
_symmetry_Int_Tables_number   1
_chemical_formula_structural
K2Rb2NaLi3Ce4PrSm4EuDy3LuTiAl3CoS13O20F9
_chemical_formula_sum
'Rb2 K2 Na1 Li3 Ce4 Pr1 Sm4 Eu1 Dy3 Lu1 Ti1 Al3 Co1 S13 O20 F9'
_cell_volume   189.26354281
_cell_formula_units_Z   1
loop_
 _symmetry_equiv_pos_site_id
 _symmetry_equiv_pos_as_xyz
  1  'x, y, z'
loop_
 _atom_site_type_symbol
 _atom_site_label
 _atom_site_symmetry_multiplicity
 _atom_site_fract_x
 _atom_site_fract_y
 _atom_site_fract_z
 _atom_site_occupancy
  F  F0  1  0.00831443  0.28409135  0.64372528  1
  Rb  Rb1  1  0.03176631  0.27591926  0.13698441  1
  F  F2  1  0.54110503  0.76323158  0.63880354  1
  Rb  Rb3  1  0.02989356  0.78326106  0.63038814  1
  Dy  Dy4  1  0.53106946  0.52530837  0.88448936  1
  F  F5  1  0.05293583  0.76781267  0.12241711  1
  F  F6  1  0.53925526  0.76037449  0.12166238  1
  Na  Na7  1  0.53126550  0.02165634  0.38044971  1
  F  F8  1  0.52892005  0.29298580  0.64731252  1
  F  F9  1  0.53524464  0.28300789  0.12544420  1
  O  O10  1  0.04069430  0.96634173  0.82855070  1
  O  O11  1  0.28710419  0.61653459  0.17312150  1
  O  O12  1  0.28571558  0.11847265  0.38851690  1
  O  O13  1  0.78590786  0.82053608  0.39576072  1
  Ce  Ce14  1  0.28646860  0.75181937  0.53674340  1
  O  O15  1  0.79527354  0.32596034  0.17349645  1
  Ce  Ce16  1  0.78365582  0.68607599  0.02502884  1
  O  O17  1  0.03285880  0.47283030  0.74160510  1
  O  O18  1  0.53922939  0.47230187  0.73840880  1
  O  O19  1  0.53756678  0.97303742  0.82170463  1
  Ce  Ce20  1  0.79098052  0.19337073  0.54326189  1
  Ce  Ce21  1  0.28282624  0.25116202  0.01962340  1
  S  S22  1  0.88206571  0.67509109  0.66723382  1
  Sm  Sm23  1  0.77694792  0.02621428  0.75006294  1
  S  S24  1  0.75256932  0.15467098  0.42090455  1
  S  S25  1  0.52334845  0.77227873  0.50607646  1
  S  S26  1  0.62402648  0.53928602  0.16556342  1
  Sm  Sm27  1  0.05792153  0.13299640  0.32132113  1
  Sm  Sm28  1  0.33828056  0.31107765  0.89991748  1
  S  S29  1  0.09882772  0.05879645  0.65606070  1
  S  S30  1  0.13632660  0.79140151  0.29974306  1
  S  S31  1  0.24080165  0.63204372  0.94118041  1
  S  S32  1  0.81363064  0.89535576  0.05394472  1
  S  S33  1  0.46108004  0.99598467  0.86932218  1
  S  S34  1  0.00565261  0.29122216  0.03062649  1
  S  S35  1  0.26577306  0.42039448  0.55429447  1
  S  S36  1  0.65107024  0.34765044  0.77496374  1
  Dy  Dy37  1  0.90890723  0.58901787  0.00398457  1
  Pr  Pr38  1  0.49282479  0.87298054  0.18477516  1
  Dy  Dy39  1  0.59497291  0.43860105  0.46870762  1
  Sm  Sm40  1  0.21675374  0.75628310  0.63264573  1
  S  S41  1  0.36530122  0.18682100  0.22102866  1
  K  K42  1  0.35058287  0.33988661  0.51134682  1
  Eu  Eu43  1  0.82984167  0.37451759  0.01897235  1
  K  K44  1  0.34287342  0.87138236  0.99388677  1
  Al  Al45  1  0.88721722  0.81297642  0.45755324  1
  F  F46  1  0.24255517  0.85138142  0.50061429  1
  F  F47  1  0.77036947  0.02623897  0.68865305  1
  O  O48  1  0.82868159  0.90459740  0.17664406  1
  O  O49  1  0.83681142  0.51618499  0.52649665  1
  F  F50  1  0.33743963  0.37864220  0.01612646  1
  O  O51  1  0.40004200  0.17826384  0.30632591  1
  Li  Li52  1  0.91093612  0.83156544  0.04326588  1
  O  O53  1  0.90633583  0.43256867  0.46017346  1
  O  O54  1  0.90154016  0.03296467  0.60357296  1
  O  O55  1  0.39703506  0.51311696  0.07846136  1
  O  O56  1  0.40367001  0.89770329  0.94630957  1
  Lu  Lu57  1  0.39837700  0.56663978  0.32976660  1
  O  O58  1  0.89976209  0.15905130  0.10160771  1
  Co  Co59  1  0.90112770  0.12120364  0.36586681  1
  O  O60  1  0.89792985  0.62611741  0.81064761  1
  Li  Li61  1  0.39371377  0.02383050  0.70620173  1
  Al  Al62  1  0.40005162  0.61956048  0.85204339  1
  O  O63  1  0.91101831  0.80453449  0.32781857  1
  Ti  Ti64  1  0.39607334  0.19400299  0.04113312  1
  Al  Al65  1  0.89708495  0.74026537  0.57597971  1
  O  O66  1  0.41535696  0.30994019  0.80671793  1
  O  O67  1  0.40184489  0.71283591  0.59899276  1
  Li  Li68  1  0.89612341  0.31821302  0.70683134  1
