# generated using pymatgen
data_KRb3Na4SrLi6Ca2Ti5MnAl4TlCdCoSnGe2Pb(O8F9)3
_symmetry_space_group_name_H-M   'P 1'
_cell_length_a   5.51392174
_cell_length_b   6.40830183
_cell_length_c   6.53172493
_cell_angle_alpha   115.47570801
_cell_angle_beta   88.93450165
_cell_angle_gamma   89.45016479
_symmetry_Int_Tables_number   1
_chemical_formula_structural
KRb3Na4SrLi6Ca2Ti5MnAl4TlCdCoSnGe2Pb(O8F9)3
_chemical_formula_sum
'K1 Rb3 Na4 Sr1 Li6 Ca2 Ti5 Mn1 Al4 Tl1 Cd1 Co1 Sn1 Ge2 Pb1 O24 F27'
_cell_volume   208.28109022
_cell_formula_units_Z   1
loop_
 _symmetry_equiv_pos_site_id
 _symmetry_equiv_pos_as_xyz
  1  'x, y, z'
loop_
 _atom_site_type_symbol
 _atom_site_label
 _atom_site_symmetry_multiplicity
 _atom_site_fract_x
 _atom_site_fract_y
 _atom_site_fract_z
 _atom_site_occupancy
  F  F0  1  0.07837371  0.26669431  0.65509343  1
  Na  Na1  1  0.38982433  0.39524627  0.46741551  1
  Ti  Ti2  1  0.89138252  0.39619082  0.96757895  1
  F  F3  1  0.70741296  0.52587366  0.27854815  1
  F  F4  1  0.70712966  0.08636512  0.83518201  1
  Na  Na5  1  0.38948861  0.89584827  0.96679258  1
  Cd  Cd6  1  0.88726741  0.89703590  0.46744838  1
  F  F7  1  0.62974530  0.52880287  0.82193631  1
  F  F8  1  0.07327397  0.70122737  0.09103277  1
  F  F9  1  0.19886623  0.75579178  0.60718501  1
  F  F10  1  0.15354261  0.25591195  0.10579837  1
  F  F11  1  0.57693899  0.03480393  0.32121405  1
  Al  Al12  1  0.40913743  0.48089385  0.77704179  1
  O  O13  1  0.79764193  0.68624568  0.97178519  1
  F  F14  1  0.22867887  0.48172832  0.99783599  1
  Sr  Sr15  1  0.93144000  0.43126243  0.71946251  1
  F  F16  1  0.66699404  0.98739910  0.27545857  1
  F  F17  1  0.00646609  0.62728411  0.46058586  1
  F  F18  1  0.61201370  0.52230835  0.60079807  1
  F  F19  1  0.05350487  0.17390685  0.46145543  1
  Al  Al20  1  0.60861689  0.83373207  0.12106101  1
  F  F21  1  0.23260726  0.71107316  0.76654971  1
  F  F22  1  0.01389738  0.16632807  0.91931283  1
  K  K23  1  0.88785768  0.43229356  0.23082812  1
  F  F24  1  0.45463625  0.97180134  0.01944669  1
  Rb  Rb25  1  0.09249718  0.87647015  0.17048752  1
  F  F26  1  0.60517949  0.32267663  0.84370828  1
  Rb  Rb27  1  0.39451471  0.34066567  0.25299689  1
  Rb  Rb28  1  0.40304208  0.95420527  0.63506901  1
  F  F29  1  0.47360060  0.71466559  0.26328069  1
  F  F30  1  0.33180562  0.34687886  0.64204216  1
  Tl  Tl31  1  0.88735986  0.94352758  0.72555721  1
  Li  Li32  1  0.56471431  0.02608793  0.32825401  1
  Li  Li33  1  0.40401143  0.42644727  0.07403354  1
  O  O34  1  0.44869971  0.70788413  0.24254596  1
  Na  Na35  1  0.92834288  0.40315783  0.85287136  1
  Na  Na36  1  0.84464264  0.51718831  0.24837893  1
  Li  Li37  1  0.20667076  0.75849605  0.76928616  1
  O  O38  1  0.16665746  0.46973136  0.61592102  1
  F  F39  1  0.52320600  0.56124127  0.83629519  1
  F  F40  1  0.93602157  0.85561687  0.38002363  1
  F  F41  1  0.06558508  0.65339160  0.01011960  1
  Ca  Ca42  1  0.12889633  0.97740740  0.14604436  1
  F  F43  1  0.90780854  0.03036639  0.73394048  1
  Li  Li44  1  0.04201352  0.16063665  0.51370734  1
  F  F45  1  0.72881103  0.20119691  0.11216462  1
  F  F46  1  0.37864947  0.90107763  0.55453426  1
  F  F47  1  0.29520386  0.12881774  0.93315667  1
  Ca  Ca48  1  0.50183433  0.19788155  0.70529443  1
  O  O49  1  0.22769883  0.28577083  0.29691666  1
  F  F50  1  0.67649621  0.32403642  0.46745616  1
  Co  Co51  1  0.29638886  0.57470453  0.41916707  1
  O  O52  1  0.85846311  0.34571913  0.08853745  1
  O  O53  1  0.36621270  0.10028875  0.11415027  1
  Mn  Mn54  1  0.85789442  0.73415995  0.31934083  1
  Pb  Pb55  1  0.86454153  0.52949882  0.81059009  1
  Ti  Ti56  1  0.86682880  0.02564622  0.07958212  1
  O  O57  1  0.35372278  0.78700876  0.72875512  1
  O  O58  1  0.36579084  0.49795029  0.28051755  1
  Sn  Sn59  1  0.35856897  0.24329746  0.41820553  1
  Ti  Ti60  1  0.85245842  0.02760648  0.75418252  1
  Ti  Ti61  1  0.35159114  0.47659874  0.10247939  1
  O  O62  1  0.85736072  0.97780317  0.59397161  1
  O  O63  1  0.36019996  0.82858872  0.42328563  1
  Ti  Ti64  1  0.36398646  0.75912607  0.56825656  1
  O  O65  1  0.87021184  0.74737215  0.12743071  1
  O  O66  1  0.85612649  0.56692529  0.55146360  1
  O  O67  1  0.35910755  0.54384887  0.95500797  1
  O  O68  1  0.85943335  0.98408198  0.91367406  1
  O  O69  1  0.36395705  0.20098113  0.75826907  1
  O  O70  1  0.86236638  0.11877604  0.31913117  1
  O  O71  1  0.59918690  0.90836227  0.91733724  1
  Li  Li72  1  0.40706521  0.71666312  0.13615768  1
  O  O73  1  0.28386199  0.12067981  0.61021692  1
  O  O74  1  0.56608957  0.47608167  0.63377291  1
  Li  Li75  1  0.92863077  0.47991091  0.61979568  1
  O  O76  1  0.04408591  0.73964930  0.12784319  1
  Ge  Ge77  1  0.89729440  0.60067922  0.00222155  1
  Ge  Ge78  1  0.34486002  0.83252001  0.50495511  1
  Al  Al79  1  0.41571060  0.22110198  0.75943780  1
  O  O80  1  0.10433418  0.43746552  0.84231228  1
  O  O81  1  0.75194049  0.34997237  0.14482257  1
  O  O82  1  0.52479225  0.88778383  0.30282378  1
  Al  Al83  1  0.83483458  0.97052515  0.25794441  1
  O  O84  1  0.01113804  0.82938313  0.45553142  1
