# generated using pymatgen
data_Li4Gd4Y2TlCr2Cd4In2Ga2NiGe2AsP3Pd6Pt8Se11I12Cl5O2
_symmetry_space_group_name_H-M   'P 1'
_cell_length_a   4.98126078
_cell_length_b   7.19046164
_cell_length_c   7.41947699
_cell_angle_alpha   119.94718933
_cell_angle_beta   107.52162170
_cell_angle_gamma   87.93739319
_symmetry_Int_Tables_number   1
_chemical_formula_structural
Li4Gd4Y2TlCr2Cd4In2Ga2NiGe2AsP3Pd6Pt8Se11I12Cl5O2
_chemical_formula_sum
'Li4 Gd4 Y2 Tl1 Cr2 Cd4 In2 Ga2 Ni1 Ge2 As1 P3 Pd6 Pt8 Se11 I12 Cl5 O2'
_cell_volume   217.47189096
_cell_formula_units_Z   1
loop_
 _symmetry_equiv_pos_site_id
 _symmetry_equiv_pos_as_xyz
  1  'x, y, z'
loop_
 _atom_site_type_symbol
 _atom_site_label
 _atom_site_symmetry_multiplicity
 _atom_site_fract_x
 _atom_site_fract_y
 _atom_site_fract_z
 _atom_site_occupancy
  Se  Se0  1  0.84631205  0.45211866  0.11545092  1
  Pd  Pd1  1  0.32416096  0.43684939  0.08788283  1
  Se  Se2  1  0.45537370  0.84092379  0.39163333  1
  Cr  Cr3  1  0.95724344  0.33921504  0.39152080  1
  Pd  Pd4  1  0.59496987  0.74429375  0.69723576  1
  Se  Se5  1  0.07873264  0.72956455  0.67708027  1
  Se  Se6  1  0.45238894  0.33493373  0.39090815  1
  Se  Se7  1  0.07918177  0.22610424  0.66965777  1
  Pd  Pd8  1  0.59334260  0.24134547  0.69882631  1
  Se  Se9  1  0.83602238  0.94535780  0.10827714  1
  Pd  Pd10  1  0.31697655  0.93342048  0.08718079  1
  Cr  Cr11  1  0.95610899  0.83888346  0.39215240  1
  P  P12  1  0.92512399  0.43058968  0.42074424  1
  Pt  Pt13  1  0.92404068  0.86293036  0.68315035  1
  Pt  Pt14  1  0.42216843  0.89875257  0.42294249  1
  Pt  Pt15  1  0.41837692  0.81919062  0.92191482  1
  Pt  Pt16  1  0.93094367  0.29410577  0.16419306  1
  Pt  Pt17  1  0.92230594  0.86569762  0.16449817  1
  As  As18  1  0.93002445  0.57370049  0.92120123  1
  Ga  Ga19  1  0.42645016  0.07820767  0.14017691  1
  Pt  Pt20  1  0.92284858  0.28660044  0.68067163  1
  Ga  Ga21  1  0.42949578  0.07620794  0.70849121  1
  Y  Y22  1  0.43102887  0.57821989  0.20280293  1
  P  P23  1  0.92256457  0.72004658  0.42454949  1
  Ni  Ni24  1  0.91558170  0.07764518  0.92455935  1
  Pt  Pt25  1  0.42307684  0.33218682  0.92361230  1
  Y  Y26  1  0.42995808  0.57091457  0.64416182  1
  Pt  Pt27  1  0.42460462  0.25381953  0.42312068  1
  In  In28  1  0.33236980  0.63795251  0.94975948  1
  Li  Li29  1  0.80718243  0.23835802  0.86546880  1
  In  In30  1  0.83840305  0.57330358  0.52489233  1
  Li  Li31  1  0.32891136  0.16411313  0.18807764  1
  Li  Li32  1  0.71867102  0.91509998  0.21288034  1
  Cl  Cl33  1  0.41933477  0.23879118  0.86555582  1
  Li  Li34  1  0.32459930  0.93488544  0.48441362  1
  O  O35  1  0.42432532  0.90828604  0.19606107  1
  Cl  Cl36  1  0.41948098  0.57546538  0.52496904  1
  Cl  Cl37  1  0.92351222  0.91773772  0.52814806  1
  Cl  Cl38  1  0.91520751  0.58066493  0.88276720  1
  Cl  Cl39  1  0.92023528  0.21838601  0.19347185  1
  Pd  Pd40  1  0.86978924  0.59472150  0.17404397  1
  Gd  Gd41  1  0.37646353  0.09627885  0.25787556  1
  Gd  Gd42  1  0.37412453  0.59415507  0.95683509  1
  Pd  Pd43  1  0.88063180  0.59314311  0.73983282  1
  O  O44  1  0.37463611  0.09481648  0.45783976  1
  Se  Se45  1  0.87777901  0.09376982  0.68144763  1
  Se  Se46  1  0.37794650  0.08479501  0.95898676  1
  Se  Se47  1  0.38016817  0.58933920  0.23148210  1
  Se  Se48  1  0.37625337  0.59834188  0.68199003  1
  Se  Se49  1  0.87041700  0.09415739  0.23192616  1
  Gd  Gd50  1  0.36798647  0.10278389  0.65303862  1
  Gd  Gd51  1  0.87750888  0.09230637  0.95444125  1
  Tl  Tl52  1  0.87290692  0.59239972  0.45392671  1
  P  P53  1  0.87733114  0.59094483  0.95576906  1
  Cd  Cd54  1  0.25043571  0.82834458  0.12629780  1
  Cd  Cd55  1  0.25375167  0.32200271  0.12915248  1
  I  I56  1  0.58680409  0.81585371  0.95372421  1
  Ge  Ge57  1  0.46438670  0.56420398  0.82464188  1
  I  I58  1  0.39515564  0.07581927  0.29373458  1
  I  I59  1  0.23553172  0.31404760  0.61394030  1
  I  I60  1  0.40778553  0.57650906  0.29448619  1
  Ge  Ge61  1  0.06608193  0.07684298  0.45821762  1
  Cd  Cd62  1  0.91252357  0.82934290  0.78769755  1
  I  I63  1  0.59523243  0.33470884  0.96457016  1
  I  I64  1  0.72647798  0.57127589  0.64239460  1
  I  I65  1  0.10665367  0.57972342  0.95843762  1
  I  I66  1  0.92417943  0.32004625  0.29954436  1
  Cd  Cd67  1  0.08903226  0.57376862  0.45750070  1
  I  I68  1  0.22855891  0.83574587  0.61383486  1
  I  I69  1  0.91901678  0.83251029  0.30106023  1
  I  I70  1  0.08443318  0.06970167  0.95996481  1
  I  I71  1  0.76703393  0.07336694  0.61580026  1
