# generated using pymatgen
data_KLaSmGd2DyLu2HfZrTiAl2TlHCl5O19F3
_symmetry_space_group_name_H-M   'P 1'
_cell_length_a   5.24298143
_cell_length_b   5.35853577
_cell_length_c   5.35133600
_cell_angle_alpha   74.17855072
_cell_angle_beta   76.42354584
_cell_angle_gamma   79.17478943
_symmetry_Int_Tables_number   1
_chemical_formula_structural   KLaSmGd2DyLu2HfZrTiAl2TlHCl5O19F3
_chemical_formula_sum
'K1 La1 Sm1 Gd2 Dy1 Lu2 Hf1 Zr1 Ti1 Al2 Tl1 H1 Cl5 O19 F3'
_cell_volume   139.36910559
_cell_formula_units_Z   1
loop_
 _symmetry_equiv_pos_site_id
 _symmetry_equiv_pos_as_xyz
  1  'x, y, z'
loop_
 _atom_site_type_symbol
 _atom_site_label
 _atom_site_symmetry_multiplicity
 _atom_site_fract_x
 _atom_site_fract_y
 _atom_site_fract_z
 _atom_site_occupancy
  Sm  Sm0  1  0.87352324  0.00032997  0.04764962  1
  Cl  Cl1  1  0.36203009  0.04271205  0.04518331  1
  F  F2  1  0.02487347  0.60313076  0.20151022  1
  K  K3  1  0.36528710  0.52584261  0.55844557  1
  Cl  Cl4  1  0.73767406  0.47376293  0.92532533  1
  Cl  Cl5  1  0.87354738  0.03948078  0.54524362  1
  Gd  Gd6  1  0.30285373  0.17928790  0.35981375  1
  Lu  Lu7  1  0.29317299  0.17168972  0.90003723  1
  O  O8  1  0.79235095  0.92104238  0.89077145  1
  O  O9  1  0.29818657  0.92580837  0.12722294  1
  O  O10  1  0.28841299  0.98022825  0.63881975  1
  Dy  Dy11  1  0.79965430  0.67709088  0.66380662  1
  O  O12  1  0.29787859  0.42646039  0.12974523  1
  O  O13  1  0.80355203  0.43489748  0.88969725  1
  H  H14  1  0.79784453  0.67481524  0.38478747  1
  O  O15  1  0.78791320  0.45159295  0.38664317  1
  O  O16  1  0.30385846  0.36494520  0.64336735  1
  O  O17  1  0.80208063  0.91065753  0.38068879  1
  Lu  Lu18  1  0.78892744  0.67774987  0.10356825  1
  F  F19  1  0.41762272  0.88020414  0.38179928  1
  Hf  Hf20  1  0.91116637  0.87833011  0.37717155  1
  O  O21  1  0.91049498  0.37654796  0.38157243  1
  Al  Al22  1  0.91352665  0.37795886  0.88335812  1
  F  F23  1  0.41345420  0.37228170  0.88572723  1
  O  O24  1  0.90501386  0.87482005  0.88612634  1
  Tl  Tl25  1  0.36792493  0.23997942  0.71940809  1
  O  O26  1  0.82996702  0.89899391  0.31728119  1
  O  O27  1  0.00045955  0.32356125  0.89192861  1
  O  O28  1  0.47490698  0.80278999  0.88826036  1
  Zr  Zr29  1  0.91222584  0.10468835  0.09859994  1
  Ti  Ti30  1  0.69854504  0.55816704  0.35153347  1
  O  O31  1  0.06306287  0.85837960  0.01351900  1
  O  O32  1  0.33031774  0.40692019  0.31741726  1
  O  O33  1  0.73955178  0.34469175  0.18030724  1
  Al  Al34  1  0.11369677  0.65163898  0.85502374  1
  O  O35  1  0.91323823  0.60658205  0.60572910  1
  O  O36  1  0.10829893  0.73241985  0.17117405  1
  Cl  Cl37  1  0.61732644  0.73535901  0.79681361  1
  Cl  Cl38  1  0.11295098  0.23892732  0.53343731  1
  O  O39  1  0.61264145  0.22320734  0.16600157  1
  Gd  Gd40  1  0.61300790  0.72953105  0.33085328  1
  La  La41  1  0.11046381  0.23756960  0.99000394  1
