# generated using pymatgen
data_RbBaTbCeSm2DyY2LuSc3TaTiAl4Zn4BiS3(O4F)7
_symmetry_space_group_name_H-M   'P 1'
_cell_length_a   3.61184454
_cell_length_b   5.69264412
_cell_length_c   6.74189138
_cell_angle_alpha   98.39829254
_cell_angle_beta   90.05755615
_cell_angle_gamma   92.44307709
_symmetry_Int_Tables_number   1
_chemical_formula_structural
RbBaTbCeSm2DyY2LuSc3TaTiAl4Zn4BiS3(O4F)7
_chemical_formula_sum
'Rb1 Ba1 Tb1 Ce1 Sm2 Y2 Dy1 Lu1 Sc3 Ta1 Ti1 Al4 Zn4 Bi1 S3 O28 F7'
_cell_volume   137.00488835
_cell_formula_units_Z   1
loop_
 _symmetry_equiv_pos_site_id
 _symmetry_equiv_pos_as_xyz
  1  'x, y, z'
loop_
 _atom_site_type_symbol
 _atom_site_label
 _atom_site_symmetry_multiplicity
 _atom_site_fract_x
 _atom_site_fract_y
 _atom_site_fract_z
 _atom_site_occupancy
  O  O0  1  0.40260744  0.11444754  0.75743699  1
  Zn  Zn1  1  0.40498728  0.80543315  0.60931456  1
  Zn  Zn2  1  0.89447409  0.56055957  0.19497313  1
  S  S3  1  0.40146065  0.43949282  0.42672682  1
  Y  Y4  1  0.90983623  0.28702909  0.69906718  1
  O  O5  1  0.90208250  0.27201453  0.04415288  1
  Y  Y6  1  0.39871228  0.07164396  0.08346835  1
  S  S7  1  0.89727521  0.72936523  0.87085539  1
  S  S8  1  0.89837927  0.92364830  0.36755177  1
  F  F9  1  0.31245118  0.82702518  0.21058832  1
  F  F10  1  0.81798857  0.33005804  0.20031780  1
  F  F11  1  0.31161985  0.87823117  0.80733174  1
  Rb  Rb12  1  0.82198495  0.84845775  0.50949556  1
  Ce  Ce13  1  0.32195023  0.35381129  0.00731113  1
  F  F14  1  0.80586153  0.37056729  0.81664878  1
  O  O15  1  0.08377218  0.58407295  0.68205601  1
  O  O16  1  0.14187478  0.20252968  0.99181032  1
  F  F17  1  0.65895516  0.24436241  0.03057330  1
  Ta  Ta18  1  0.97340971  0.34974709  0.52238411  1
  Lu  Lu19  1  0.00436447  0.90810513  0.84723574  1
  Al  Al20  1  0.94144678  0.37687537  0.14098233  1
  O  O21  1  0.13664667  0.51850677  0.30266431  1
  O  O22  1  0.23797330  0.12799041  0.59300393  1
  Ba  Ba23  1  0.43813634  0.90144110  0.27180541  1
  O  O24  1  0.76044893  0.15516582  0.69360793  1
  F  F25  1  0.38458586  0.74674666  0.91183305  1
  O  O26  1  0.85800731  0.16435754  0.32767987  1
  O  O27  1  0.84364259  0.67502505  0.06407720  1
  Dy  Dy28  1  0.42881057  0.35779941  0.79106224  1
  F  F29  1  0.63761383  0.58170909  0.53126884  1
  Al  Al30  1  0.08868293  0.70811480  0.11796968  1
  O  O31  1  0.54235142  0.75653636  0.68349338  1
  Sm  Sm32  1  0.53089315  0.40250501  0.77353615  1
  O  O33  1  0.25826222  0.48681203  0.01151374  1
  Tb  Tb34  1  0.67572230  0.74318492  0.36520341  1
  O  O35  1  0.80104947  0.09562090  0.65729427  1
  Al  Al36  1  0.75358540  0.92671323  0.88699818  1
  O  O37  1  0.62846297  0.37478542  0.42277497  1
  O  O38  1  0.57223785  0.13451029  0.98752815  1
  O  O39  1  0.21742947  0.24477220  0.57430786  1
  O  O40  1  0.06552441  0.91669583  0.93313539  1
  Al  Al41  1  0.91625321  0.27732855  0.47045401  1
  O  O42  1  0.77523232  0.66288060  0.02430277  1
  Sm  Sm43  1  0.30108151  0.21057704  0.20800471  1
  Bi  Bi44  1  0.18763109  0.87196434  0.60312086  1
  O  O45  1  0.92785293  0.02034275  0.28198588  1
  O  O46  1  0.02644879  0.53819025  0.34635174  1
  O  O47  1  0.34299082  0.85250288  0.28223383  1
  Zn  Zn48  1  0.94438249  0.82837105  0.95968193  1
  O  O49  1  0.54651624  0.43944812  0.57723004  1
  O  O50  1  0.08090656  0.97019625  0.54801106  1
  Sc  Sc51  1  0.31496158  0.20027721  0.83155704  1
  Zn  Zn52  1  0.68367058  0.57259077  0.70720363  1
  O  O53  1  0.09088627  0.43532047  0.56855410  1
  O  O54  1  0.53205192  0.97188461  0.09587955  1
  Ti  Ti55  1  0.31223997  0.20200597  0.33508348  1
  O  O56  1  0.54338926  0.44044995  0.11381540  1
  O  O57  1  0.54707587  0.97715652  0.56790668  1
  O  O58  1  0.07202172  0.42704707  0.10132851  1
  O  O59  1  0.07483517  0.96825761  0.09301692  1
  Sc  Sc60  1  0.81220555  0.19890524  0.33051822  1
  Sc  Sc61  1  0.31395185  0.70683080  0.33320004  1
