# generated using pymatgen
data_KBa3La2Tb6DyYHoTh2Ga4FeCo3Cu2Ni7Sn6P11Au6(Se4I)2
_symmetry_space_group_name_H-M   'P 1'
_cell_length_a   4.18677711
_cell_length_b   7.61783409
_cell_length_c   9.85734558
_cell_angle_alpha   91.82069397
_cell_angle_beta   92.32991028
_cell_angle_gamma   96.16941833
_symmetry_Int_Tables_number   1
_chemical_formula_structural
KBa3La2Tb6DyYHoTh2Ga4FeCo3Cu2Ni7Sn6P11Au6(Se4I)2
_chemical_formula_sum
'K1 Ba3 La2 Tb6 Y1 Dy1 Ho1 Th2 Ga4 Fe1 Co3 Cu2 Ni7 Sn6 P11 Au6 Se8 I2'
_cell_volume   312.10592172
_cell_formula_units_Z   1
loop_
 _symmetry_equiv_pos_site_id
 _symmetry_equiv_pos_as_xyz
  1  'x, y, z'
loop_
 _atom_site_type_symbol
 _atom_site_label
 _atom_site_symmetry_multiplicity
 _atom_site_fract_x
 _atom_site_fract_y
 _atom_site_fract_z
 _atom_site_occupancy
  I  I0  1  0.22065866  0.71355623  0.66152704  1
  Th  Th1  1  0.72611892  0.21263117  0.16929476  1
  Th  Th2  1  0.21932250  0.71769315  0.33820325  1
  Se  Se3  1  0.72159529  0.97696501  0.40963313  1
  Ba  Ba4  1  0.22074670  0.20922238  0.58259463  1
  I  I5  1  0.72318614  0.21436261  0.84568375  1
  Se  Se6  1  0.72798228  0.45294207  0.40949979  1
  Se  Se7  1  0.22381811  0.48054844  0.09961507  1
  Ba  Ba8  1  0.72307462  0.71861845  0.91906041  1
  Se  Se9  1  0.22635125  0.95045632  0.10052322  1
  La  La10  1  0.42390084  0.78203237  0.33868930  1
  La  La11  1  0.89577752  0.77930039  0.95768422  1
  P  P12  1  0.86805636  0.57647854  0.29541340  1
  Co  Co13  1  0.12441482  0.12994470  0.46105829  1
  P  P14  1  0.84635091  0.95327353  0.60509837  1
  Y  Y15  1  0.63198203  0.26709062  0.43053314  1
  P  P16  1  0.57356042  0.09578674  0.09351900  1
  Ho  Ho17  1  0.14295422  0.26961121  0.84053975  1
  Cu  Cu18  1  0.16093647  0.40101922  0.19670999  1
  Fe  Fe19  1  0.35977879  0.64029974  0.71254921  1
  P  P20  1  0.15733938  0.44214222  0.50528568  1
  Co  Co21  1  0.87996244  0.64124286  0.57892543  1
  P  P22  1  0.16421326  0.08968296  0.17880973  1
  Cu  Cu23  1  0.61501718  0.10673997  0.79821622  1
  P  P24  1  0.37054279  0.58688331  0.99170142  1
  P  P25  1  0.67332470  0.44354489  0.76559693  1
  P  P26  1  0.27288601  0.93322998  0.66787660  1
  Co  Co27  1  0.65978479  0.39664388  0.05772205  1
  Ba  Ba28  1  0.53403902  0.86498487  0.47392628  1
  K  K29  1  0.28268316  0.87092173  0.91172963  1
  Se  Se30  1  0.90506363  0.86631614  0.20088440  1
  Se  Se31  1  0.40297711  0.36584690  0.20322382  1
  Ga  Ga32  1  0.88456011  0.36344215  0.13316345  1
  Se  Se33  1  0.04162904  0.36531895  0.58411252  1
  Se  Se34  1  0.76701325  0.35935435  0.79579735  1
  Au  Au35  1  0.62582672  0.93064612  0.31054646  1
  Sn  Sn36  1  0.12344990  0.76055539  0.68805182  1
  Au  Au37  1  0.11907657  0.75696820  0.97806746  1
  Tb  Tb38  1  0.12521358  0.05823528  0.48317724  1
  Tb  Tb39  1  0.62206280  0.55463260  0.81438279  1
  Au  Au40  1  0.62517440  0.25488830  0.98199719  1
  Au  Au41  1  0.12749566  0.42790174  0.30895516  1
  Tb  Tb42  1  0.12147071  0.09111817  0.14801872  1
  Sn  Sn43  1  0.11900844  0.42318040  0.00454966  1
  Sn  Sn44  1  0.12346755  0.75915861  0.28503445  1
  Sn  Sn45  1  0.62706327  0.26086041  0.33238938  1
  Tb  Tb46  1  0.61916333  0.59471208  0.14398332  1
  Au  Au47  1  0.62237984  0.92484510  0.66331172  1
  Tb  Tb48  1  0.12166855  0.12499516  0.80494684  1
  Sn  Sn49  1  0.12525548  0.42672300  0.60076487  1
  Tb  Tb50  1  0.62489301  0.62756443  0.47609147  1
  Sn  Sn51  1  0.61980700  0.92444676  0.95866752  1
  Au  Au52  1  0.61544436  0.25902268  0.62643033  1
  Ni  Ni53  1  0.00030773  0.58840120  0.88505304  1
  Ni  Ni54  1  0.16245523  0.66475070  0.29438922  1
  Ni  Ni55  1  0.10687204  0.90426642  0.75220883  1
  Ni  Ni56  1  0.15161066  0.14824286  0.53632522  1
  Ga  Ga57  1  0.50166118  0.91052043  0.52958256  1
  Ga  Ga58  1  0.34050852  0.33680815  0.92640078  1
  P  P59  1  0.83649039  0.21406215  0.85479832  1
  P  P60  1  0.83964223  0.61348742  0.55590522  1
  Ga  Ga61  1  0.33966839  0.46806702  0.50075078  1
  Ni  Ni62  1  0.00344410  0.22422658  0.19690986  1
  Dy  Dy63  1  0.49447787  0.91508472  0.04475433  1
  Ni  Ni64  1  0.67357886  0.51749671  0.19696833  1
  P  P65  1  0.90681338  0.90254325  0.26281285  1
  Ni  Ni66  1  0.68124127  0.28981516  0.57992941  1
