# generated using pymatgen
data_Cs4Rb4Na2Li4Ca4La2NdYAl2FeReSiMoPPb2(O3F2)8
_symmetry_space_group_name_H-M   'P 1'
_cell_length_a   4.13657284
_cell_length_b   6.79489040
_cell_length_c   7.25706005
_cell_angle_alpha   112.83836365
_cell_angle_beta   89.98456573
_cell_angle_gamma   91.37944031
_symmetry_Int_Tables_number   1
_chemical_formula_structural
Cs4Rb4Na2Li4Ca4La2NdYAl2FeReSiMoPPb2(O3F2)8
_chemical_formula_sum
'Cs4 Rb4 Na2 Li4 Ca4 La2 Nd1 Y1 Al2 Fe1 Si1 Re1 Mo1 P1 Pb2 O24 F16'
_cell_volume   187.92346328
_cell_formula_units_Z   1
loop_
 _symmetry_equiv_pos_site_id
 _symmetry_equiv_pos_as_xyz
  1  'x, y, z'
loop_
 _atom_site_type_symbol
 _atom_site_label
 _atom_site_symmetry_multiplicity
 _atom_site_fract_x
 _atom_site_fract_y
 _atom_site_fract_z
 _atom_site_occupancy
  F  F0  1  0.67283863  0.49266368  0.45372030  1
  F  F1  1  0.66943908  0.00507022  0.96761554  1
  F  F2  1  0.17401186  0.00759298  0.43780088  1
  Nd  Nd3  1  0.67232323  0.62095571  0.82566696  1
  F  F4  1  0.17194876  0.50231886  0.94590843  1
  Na  Na5  1  0.17269969  0.12198547  0.82719892  1
  Na  Na6  1  0.17497760  0.62344712  0.33024982  1
  F  F7  1  0.67402518  0.76064569  0.19851506  1
  Y  Y8  1  0.67341703  0.12586528  0.33106324  1
  F  F9  1  0.67244023  0.24572165  0.68309075  1
  F  F10  1  0.16673592  0.74840033  0.70860320  1
  F  F11  1  0.17317280  0.24098840  0.21637246  1
  Li  Li12  1  0.89706159  0.67553914  0.32866108  1
  O  O13  1  0.79682767  0.00460954  0.29705378  1
  O  O14  1  0.30401424  0.68325531  0.39568728  1
  Li  Li15  1  0.91259485  0.67848003  0.84066015  1
  Li  Li16  1  0.43130556  0.01101215  0.83424717  1
  Al  Al17  1  0.92337406  0.15707634  0.08570468  1
  O  O18  1  0.72691864  0.54728961  0.58416504  1
  Si  Si19  1  0.41492519  0.53747773  0.58595878  1
  Pb  Pb20  1  0.40508187  0.50092268  0.08481960  1
  O  O21  1  0.79745913  0.01023612  0.87628400  1
  O  O22  1  0.36937258  0.23959267  0.58270109  1
  Li  Li23  1  0.43157911  0.01671649  0.33312055  1
  O  O24  1  0.28835031  0.66907120  0.77999151  1
  O  O25  1  0.84664840  0.47485241  0.08522905  1
  Pb  Pb26  1  0.92939371  0.16767503  0.58413887  1
  O  O27  1  0.25403512  0.12565811  0.08622479  1
  O  O28  1  0.53528571  0.03052728  0.72466582  1
  La  La29  1  0.20866048  0.50469106  0.37222120  1
  O  O30  1  0.02275537  0.78896213  0.67442614  1
  Fe  Fe31  1  0.75782770  0.97343773  0.40973949  1
  Re  Re32  1  0.25585607  0.96519989  0.93196666  1
  O  O33  1  0.16501594  0.31467053  0.91028905  1
  La  La34  1  0.73549074  0.48724884  0.90777451  1
  O  O35  1  0.76863688  0.34643522  0.34468114  1
  O  O36  1  0.02920516  0.86819124  0.16807526  1
  O  O37  1  0.48018351  0.78406030  0.14175034  1
  F  F38  1  0.09347324  0.54429322  0.86419576  1
  Cs  Cs39  1  0.34287393  0.79341483  0.61492258  1
  Rb  Rb40  1  0.84351468  0.29454157  0.11613756  1
  Rb  Rb41  1  0.84138608  0.79692334  0.61277890  1
  Rb  Rb42  1  0.09476045  0.79829425  0.11632062  1
  F  F43  1  0.60314351  0.04431191  0.36286652  1
  Cs  Cs44  1  0.09340521  0.29686859  0.61302847  1
  F  F45  1  0.34635457  0.54272169  0.36296260  1
  F  F46  1  0.84497815  0.54563963  0.36297065  1
  F  F47  1  0.34654227  0.04392876  0.86118615  1
  F  F48  1  0.58769262  0.54677761  0.86671770  1
  Cs  Cs49  1  0.59393936  0.79436970  0.11401907  1
  Cs  Cs50  1  0.34252319  0.29612955  0.11383832  1
  Rb  Rb51  1  0.59278089  0.29472706  0.61644280  1
  F  F52  1  0.09344933  0.04706044  0.36220559  1
  F  F53  1  0.84731877  0.04330067  0.86270249  1
  O  O54  1  0.66711211  0.17568532  0.64305687  1
  O  O55  1  0.27119979  0.80618358  0.26859179  1
  Ca  Ca56  1  0.84958816  0.36343521  0.81134027  1
  O  O57  1  0.17367759  0.01494032  0.77994663  1
  P  P58  1  0.21495876  0.72395986  0.78619415  1
  O  O59  1  0.25883663  0.24023843  0.34212241  1
  O  O60  1  0.57176757  0.07851937  0.98705274  1
  Mo  Mo61  1  0.51398271  0.03360145  0.23040068  1
  Al  Al62  1  0.49953148  0.00539123  0.80223548  1
  Ca  Ca63  1  0.02258562  0.54732090  0.20756969  1
  Ca  Ca64  1  0.96587920  0.99302721  0.45106041  1
  O  O65  1  0.50039756  0.69077873  0.78228796  1
  Ca  Ca66  1  0.47689122  0.47902530  0.45071197  1
  O  O67  1  0.13307598  0.64293379  0.64106506  1
  O  O68  1  0.71430039  0.77673119  0.34862110  1
  O  O69  1  0.08562382  0.58071220  0.94049752  1
  O  O70  1  0.73301011  0.25676346  0.25430548  1
