# generated using pymatgen
data_KRbNaLi3LaCe3DyTlCr2CuSi2NiAg4PH2S12O17F8
_symmetry_space_group_name_H-M   'P 1'
_cell_length_a   5.96897554
_cell_length_b   6.38112879
_cell_length_c   7.63824987
_cell_angle_alpha   86.05755615
_cell_angle_beta   86.79039764
_cell_angle_gamma   71.99844360
_symmetry_Int_Tables_number   1
_chemical_formula_structural
KRbNaLi3LaCe3DyTlCr2CuSi2NiAg4PH2S12O17F8
_chemical_formula_sum
'K1 Rb1 Na1 Li3 La1 Ce3 Dy1 Tl1 Cr2 Si2 Cu1 Ni1 Ag4 P1 H2 S12 O17 F8'
_cell_volume   275.85027070
_cell_formula_units_Z   1
loop_
 _symmetry_equiv_pos_site_id
 _symmetry_equiv_pos_as_xyz
  1  'x, y, z'
loop_
 _atom_site_type_symbol
 _atom_site_label
 _atom_site_symmetry_multiplicity
 _atom_site_fract_x
 _atom_site_fract_y
 _atom_site_fract_z
 _atom_site_occupancy
  S  S0  1  0.72798645  0.97359240  0.16732892  1
  O  O1  1  0.35944486  0.64152372  0.50355351  1
  Ag  Ag2  1  0.69011194  0.04980401  0.55916899  1
  O  O3  1  0.40709952  0.75580549  0.79087621  1
  O  O4  1  0.88778436  0.92975748  0.00717026  1
  F  F5  1  0.14519566  0.16386138  0.50036854  1
  Li  Li6  1  0.24975486  0.90609962  0.37322330  1
  F  F7  1  0.26407930  0.48903185  0.13116136  1
  Ag  Ag8  1  0.99249613  0.48602894  0.37300327  1
  O  O9  1  0.53830606  0.36200345  0.72887903  1
  O  O10  1  0.88909322  0.85410810  0.31107455  1
  S  S11  1  0.51527745  0.59016460  0.66168123  1
  Li  Li12  1  0.26098648  0.76577401  0.00869244  1
  H  H13  1  0.41851702  0.38539004  0.15901262  1
  O  O14  1  0.66565549  0.20553978  0.21033683  1
  Tl  Tl15  1  0.11364927  0.26376113  0.84492356  1
  O  O16  1  0.76847959  0.60965896  0.61267692  1
  O  O17  1  0.47934130  0.90152150  0.16262178  1
  O  O18  1  0.98969185  0.16370471  0.90924734  1
  O  O19  1  0.45149511  0.45186171  0.86893892  1
  Si  Si20  1  0.70864886  0.00801192  0.38920200  1
  Si  Si21  1  0.70392454  0.37166885  0.06099043  1
  O  O22  1  0.82674474  0.68632913  0.23615283  1
  O  O23  1  0.56223667  0.16049977  0.20343576  1
  P  P24  1  0.20702696  0.21314582  0.72301638  1
  O  O25  1  0.01476087  0.26274899  0.52179217  1
  O  O26  1  0.42740151  0.96128511  0.58314085  1
  Ag  Ag27  1  0.50797403  0.46566692  0.67727536  1
  H  H28  1  0.00179052  0.93548357  0.62845689  1
  Dy  Dy29  1  0.71399862  0.14088982  0.06825665  1
  O  O30  1  0.07289745  0.02470936  0.79959148  1
  Li  Li31  1  0.30054131  0.74545836  0.26655000  1
  O  O32  1  0.32473773  0.22952801  0.31286395  1
  O  O33  1  0.70874345  0.64235026  0.07084873  1
  F  F34  1  0.85733777  0.03750207  0.33009157  1
  Cu  Cu35  1  0.06847578  0.82421422  0.13254437  1
  Ag  Ag36  1  0.56671697  0.32843944  0.62766659  1
  F  F37  1  0.27459520  0.61360192  0.92811197  1
  F  F38  1  0.27270737  0.04866710  0.91187882  1
  K  K39  1  0.81399024  0.58266431  0.87053245  1
  Rb  Rb40  1  0.31969029  0.06732491  0.38570395  1
  F  F41  1  0.86105531  0.60535246  0.34292638  1
  F  F42  1  0.78293163  0.10914723  0.84063047  1
  F  F43  1  0.36103946  0.54810792  0.41693223  1
  Ni  Ni44  1  0.78189903  0.84671491  0.57194525  1
  La  La45  1  0.87081438  0.07596018  0.04635806  1
  Na  Na46  1  0.33223891  0.08303273  0.43094105  1
  S  S47  1  0.07127599  0.01380657  0.68035716  1
  Ce  Ce48  1  0.80227423  0.30790538  0.64091730  1
  S  S49  1  0.28553697  0.92350870  0.02560768  1
  S  S50  1  0.09518795  0.34353107  0.38716543  1
  S  S51  1  0.59057450  0.35757086  0.32455033  1
  Ce  Ce52  1  0.29760623  0.28259853  0.03068429  1
  Ce  Ce53  1  0.33782393  0.68984109  0.61793590  1
  S  S54  1  0.40251809  0.45003298  0.79211676  1
  Cr  Cr55  1  0.53531051  0.72498077  0.02993533  1
  S  S56  1  0.56977230  0.05558983  0.75002086  1
  S  S57  1  0.76450133  0.70590746  0.77807409  1
  S  S58  1  0.35523406  0.67792743  0.26524255  1
  S  S59  1  0.76820993  0.90543216  0.29587254  1
  S  S60  1  0.90873843  0.44117713  0.02439979  1
  Cr  Cr61  1  0.68093687  0.59839475  0.24114144  1
