# generated using pymatgen
data_CsRbBaNa3Sr3Li4Ca4SmY4U3Ti2V3Co2Ni2MoRuW2Cl4(O5F)9
_symmetry_space_group_name_H-M   'P 1'
_cell_length_a   6.37260008
_cell_length_b   6.49480915
_cell_length_c   7.29817581
_cell_angle_alpha   100.52937317
_cell_angle_beta   96.60678101
_cell_angle_gamma   91.79326630
_symmetry_Int_Tables_number   1
_chemical_formula_structural
CsRbBaNa3Sr3Li4Ca4SmY4U3Ti2V3Co2Ni2MoRuW2Cl4(O5F)9
_chemical_formula_sum
;
Cs1 Rb1 Ba1 Na3 Sr3 Li4 Ca4 Sm1 Y4 U3 Ti2 V3 Co2 Ni2 Mo1 Ru1 W2 Cl4
O45 F9
;
_cell_volume   294.58078900
_cell_formula_units_Z   1
loop_
 _symmetry_equiv_pos_site_id
 _symmetry_equiv_pos_as_xyz
  1  'x, y, z'
loop_
 _atom_site_type_symbol
 _atom_site_label
 _atom_site_symmetry_multiplicity
 _atom_site_fract_x
 _atom_site_fract_y
 _atom_site_fract_z
 _atom_site_occupancy
  F  F0  1  0.87354821  0.24385174  0.67389774  1
  O  O1  1  0.49574462  0.20409837  0.82005334  1
  O  O2  1  0.67791843  0.28661060  0.19011486  1
  Rb  Rb3  1  0.20869742  0.90600932  0.10929067  1
  F  F4  1  0.62388808  0.84300625  0.30353636  1
  V  V5  1  0.73779732  0.19655766  0.93153733  1
  Na  Na6  1  0.81825984  0.61781168  0.74537498  1
  F  F7  1  0.74217248  0.53566587  0.01996240  1
  F  F8  1  0.33793762  0.55729359  0.23788555  1
  Ni  Ni9  1  0.18873510  0.21686758  0.71412945  1
  F  F10  1  0.20962366  0.89887077  0.59829158  1
  V  V11  1  0.68746811  0.56191331  0.29440579  1
  F  F12  1  0.25000283  0.25828725  0.44973117  1
  V  V13  1  0.25868356  0.58646399  0.50143349  1
  O  O14  1  0.55389589  0.56864935  0.52446085  1
  O  O15  1  0.79269314  0.95453334  0.90339744  1
  F  F16  1  0.06137627  0.25227395  0.97627473  1
  O  O17  1  0.94507557  0.58811659  0.39656413  1
  Na  Na18  1  0.60367876  0.17660965  0.46832299  1
  F  F19  1  0.18240792  0.56897855  0.74884880  1
  Ca  Ca20  1  0.61622351  0.72179133  0.13178208  1
  Y  Y21  1  0.73218304  0.15875918  0.88749498  1
  Cl  Cl22  1  0.98246831  0.93310523  0.30522594  1
  O  O23  1  0.07277382  0.24938805  0.99657190  1
  Cl  Cl24  1  0.87617809  0.79334331  0.82283831  1
  O  O25  1  0.80876881  0.26452607  0.64807218  1
  Ba  Ba26  1  0.16505189  0.44104233  0.68901819  1
  Cl  Cl27  1  0.36986288  0.02026748  0.69219136  1
  Y  Y28  1  0.72782314  0.26165164  0.36605081  1
  O  O29  1  0.27213886  0.66115576  0.04145784  1
  O  O30  1  0.03786808  0.44744417  0.37103322  1
  O  O31  1  0.77480340  0.44289348  0.10165256  1
  Mo  Mo32  1  0.07356973  0.49792853  0.14426407  1
  O  O33  1  0.54480571  0.05309108  0.12404064  1
  Cl  Cl34  1  0.51886147  0.55943215  0.45152259  1
  Y  Y35  1  0.23264894  0.98268288  0.03162816  1
  O  O36  1  0.85051602  0.47887546  0.75315416  1
  O  O37  1  0.20453593  0.89770639  0.64283526  1
  Sr  Sr38  1  0.03285392  0.73451006  0.94431108  1
  O  O39  1  0.73822522  0.01130392  0.73650891  1
  O  O40  1  0.44779018  0.66641295  0.95654690  1
  O  O41  1  0.72681224  0.98281634  0.14820452  1
  O  O42  1  0.62500530  0.72095460  0.43317285  1
  O  O43  1  0.33792162  0.36689207  0.66839147  1
  Sr  Sr44  1  0.53736347  0.23222710  0.93885899  1
  O  O45  1  0.82792544  0.49173528  0.14467649  1
  O  O46  1  0.23695302  0.88477415  0.24313940  1
  O  O47  1  0.96002281  0.23921071  0.44876844  1
  O  O48  1  0.35303259  0.39051431  0.23304102  1
  O  O49  1  0.12326454  0.15301406  0.94429410  1
  Sm  Sm50  1  0.52610296  0.69161284  0.69058216  1
  U  U51  1  0.53436166  0.69060242  0.19955100  1
  U  U52  1  0.03063814  0.19403283  0.69324076  1
  U  U53  1  0.03608378  0.19168228  0.19739941  1
  Na  Na54  1  0.02345067  0.65801239  0.44823587  1
  Sr  Sr55  1  0.53101653  0.14886372  0.44788834  1
  Li  Li56  1  0.01101999  0.76041996  0.09861374  1
  O  O57  1  0.07551580  0.87282568  0.30228633  1
  Li  Li58  1  0.50615227  0.26009357  0.10173741  1
  O  O59  1  0.89569342  0.15714835  0.99206382  1
  Li  Li60  1  0.90390486  0.64166468  0.42127156  1
  Ni  Ni61  1  0.44738895  0.70098925  0.76484334  1
  Ru  Ru62  1  0.97562200  0.22361442  0.19561729  1
  O  O63  1  0.82519090  0.55484152  0.68841219  1
  O  O64  1  0.28261927  0.54531389  0.70757031  1
  O  O65  1  0.32039329  0.14403732  0.00626273  1
  O  O66  1  0.29426253  0.08798832  0.68290621  1
  Y  Y67  1  0.47746298  0.72671092  0.16620213  1
  O  O68  1  0.09062781  0.33246598  0.31875637  1
  Li  Li69  1  0.38797235  0.15226057  0.42446345  1
  O  O70  1  0.62219423  0.32858345  0.30133611  1
  Cs  Cs71  1  0.81078887  0.06974509  0.66603941  1
  O  O72  1  0.88976365  0.56997579  0.01181212  1
  W  W73  1  0.09871989  0.35065305  0.81514126  1
  O  O74  1  0.36807460  0.61632293  0.00434622  1
  F  F75  1  0.62204993  0.87493825  0.29393506  1
  W  W76  1  0.39269549  0.35687825  0.30594695  1
  O  O77  1  0.91136360  0.24200696  0.97267002  1
  O  O78  1  0.73289782  0.58538634  0.27712300  1
  O  O79  1  0.89791703  0.46540186  0.68634719  1
  O  O80  1  0.40237674  0.38876176  0.82476670  1
  Ca  Ca81  1  0.66535032  0.92729926  0.13575703  1
  O  O82  1  0.51943076  0.12118632  0.40817675  1
  O  O83  1  0.41321415  0.17861861  0.10750677  1
  O  O84  1  0.04441204  0.15221554  0.33882472  1
  Ti  Ti85  1  0.63212115  0.65047103  0.70878386  1
  Ca  Ca86  1  0.11620066  0.77934915  0.40852943  1
  O  O87  1  0.27896091  0.58055598  0.16686003  1
  O  O88  1  0.42384776  0.78004628  0.85253549  1
  Ti  Ti89  1  0.12957913  0.50830555  0.90638971  1
  Co  Co90  1  0.67764497  0.42510054  0.02954996  1
  Ca  Ca91  1  0.17688242  0.02901645  0.86649603  1
  O  O92  1  0.40713775  0.55802113  0.50651032  1
  O  O93  1  0.89219153  0.70320249  0.95170617  1
  Co  Co94  1  0.85017473  0.18248476  0.53928626  1
  O  O95  1  0.87603176  0.90163898  0.63570505  1
