# generated using pymatgen
data_K2Ba2Ca2VFeCoCu2Tc2Sb2As2PPt4W2S3ClO35F
_symmetry_space_group_name_H-M   'P 1'
_cell_length_a   3.75501537
_cell_length_b   4.43329763
_cell_length_c   10.08227825
_cell_angle_alpha   90.99948883
_cell_angle_beta   91.40910339
_cell_angle_gamma   115.52250671
_symmetry_Int_Tables_number   1
_chemical_formula_structural
K2Ba2Ca2VFeCoCu2Tc2Sb2As2PPt4W2S3ClO35F
_chemical_formula_sum
'K2 Ba2 Ca2 V1 Fe1 Co1 Cu2 Tc2 Sb2 As2 P1 Pt4 W2 S3 Cl1 O35 F1'
_cell_volume   151.34319861
_cell_formula_units_Z   1
loop_
 _symmetry_equiv_pos_site_id
 _symmetry_equiv_pos_as_xyz
  1  'x, y, z'
loop_
 _atom_site_type_symbol
 _atom_site_label
 _atom_site_symmetry_multiplicity
 _atom_site_fract_x
 _atom_site_fract_y
 _atom_site_fract_z
 _atom_site_occupancy
  W  W0  1  0.10623969  0.52736914  0.54337031  1
  V  V1  1  0.42408401  0.16622990  0.29493105  1
  F  F2  1  0.60599583  0.54014337  0.22208753  1
  O  O3  1  0.25842357  0.81931502  0.71075314  1
  O  O4  1  0.96654975  0.24715173  0.34018278  1
  O  O5  1  0.60743701  0.51794857  0.50276136  1
  O  O6  1  0.28872687  0.39929402  0.91514337  1
  O  O7  1  0.95371735  0.21321625  0.62343371  1
  W  W8  1  0.28376079  0.89943987  0.91679835  1
  O  O9  1  0.31870177  0.96026826  0.12814632  1
  O  O10  1  0.78762949  0.89282411  0.92133635  1
  O  O11  1  0.28602660  0.88828486  0.41055450  1
  Ca  Ca12  1  0.92058355  0.26239887  0.51527208  1
  O  O13  1  0.95530963  0.38927767  0.83605719  1
  Cu  Cu14  1  0.29992959  0.77020240  0.80905735  1
  Cu  Cu15  1  0.28044274  0.75937688  0.19807553  1
  O  O16  1  0.93366736  0.39688405  0.18720576  1
  S  S17  1  0.38109884  0.86607563  0.49972221  1
  O  O18  1  0.53841901  0.02065263  0.00164829  1
  P  P19  1  0.81237453  0.27310485  0.01292229  1
  Sb  Sb20  1  0.90493983  0.35317329  0.61925948  1
  O  O21  1  0.65657973  0.56322873  0.50990391  1
  Ba  Ba22  1  0.90749401  0.83965337  0.25659075  1
  Sb  Sb23  1  0.45115548  0.29945120  0.09319045  1
  O  O24  1  0.16036183  0.56544101  0.50887918  1
  O  O25  1  0.65924734  0.13417026  0.50752461  1
  O  O26  1  0.15828921  0.13029236  0.50128543  1
  S  S27  1  0.85380274  0.34278464  0.99442166  1
  Co  Co28  1  0.40334222  0.34761724  0.45595518  1
  S  S29  1  0.40817225  0.88219750  0.02031007  1
  Ca  Ca30  1  0.41013908  0.85396928  0.62465954  1
  As  As31  1  0.68259835  0.06247864  0.32852936  1
  Cl  Cl32  1  0.36585122  0.46021616  0.11793748  1
  K  K33  1  0.85178763  0.35830563  0.06338877  1
  O  O34  1  0.82987791  0.63473350  0.46070951  1
  Fe  Fe35  1  0.51201493  0.61364388  0.42582265  1
  O  O36  1  0.97254866  0.56158435  0.80583584  1
  O  O37  1  0.25393203  0.66623837  0.57407379  1
  Ba  Ba38  1  0.22681683  0.23447230  0.62379670  1
  O  O39  1  0.64689183  0.97632039  0.09410571  1
  O  O40  1  0.95558596  0.07543243  0.37438577  1
  O  O41  1  0.51942658  0.91349244  0.43361148  1
  O  O42  1  0.98723489  0.99445146  0.78137386  1
  K  K43  1  0.21607764  0.88426262  0.07264423  1
  As  As44  1  0.99577606  0.71793872  0.65696537  1
  O  O45  1  0.56090641  0.31815711  0.43764380  1
  O  O46  1  0.11072262  0.77659172  0.99504727  1
  O  O47  1  0.14275402  0.75928265  0.32970595  1
  Tc  Tc48  1  0.87902927  0.59670633  0.48710483  1
  O  O49  1  0.15097354  0.26024351  0.16342211  1
  Tc  Tc50  1  0.88389283  0.09724190  0.00690563  1
  O  O51  1  0.16115586  0.26442501  0.49963278  1
  Pt  Pt52  1  0.87914932  0.58953041  0.83083642  1
  O  O53  1  0.65588927  0.43489224  0.65980190  1
  O  O54  1  0.61054856  0.92884856  0.49908286  1
  O  O55  1  0.62406868  0.42465231  0.32617021  1
  Pt  Pt56  1  0.37916750  0.09518829  0.67437714  1
  Pt  Pt57  1  0.37800184  0.09429792  0.33352140  1
  O  O58  1  0.64038759  0.92874676  0.83633351  1
  O  O59  1  0.12366685  0.25562051  0.84218711  1
  O  O60  1  0.65871352  0.41876256  0.99343860  1
  O  O61  1  0.11593137  0.75433671  0.65804201  1
  Pt  Pt62  1  0.38308367  0.59547454  0.15302701  1
  O  O63  1  0.61481708  0.93225485  0.16440767  1
