# generated using pymatgen
data_RbBaLaSm5Y8Mn2Al4CdSi3S2(O17F3)2
_symmetry_space_group_name_H-M   'P 1'
_cell_length_a   5.90224075
_cell_length_b   6.03924799
_cell_length_c   7.54824066
_cell_angle_alpha   99.78105164
_cell_angle_beta   90.92654419
_cell_angle_gamma   91.39220428
_symmetry_Int_Tables_number   1
_chemical_formula_structural   RbBaLaSm5Y8Mn2Al4CdSi3S2(O17F3)2
_chemical_formula_sum
'Rb1 Ba1 La1 Sm5 Y8 Mn2 Al4 Cd1 Si3 S2 O34 F6'
_cell_volume   265.01223507
_cell_formula_units_Z   1
loop_
 _symmetry_equiv_pos_site_id
 _symmetry_equiv_pos_as_xyz
  1  'x, y, z'
loop_
 _atom_site_type_symbol
 _atom_site_label
 _atom_site_symmetry_multiplicity
 _atom_site_fract_x
 _atom_site_fract_y
 _atom_site_fract_z
 _atom_site_occupancy
  O  O0  1  0.75773436  0.79396272  0.29809481  1
  O  O1  1  0.13768522  0.49641129  0.18218243  1
  O  O2  1  0.10219425  0.44422266  0.56195986  1
  O  O3  1  0.18126822  0.99361688  0.18370590  1
  Al  Al4  1  0.97290838  0.75921309  0.14494306  1
  Y  Y5  1  0.87504250  0.19742543  0.36708522  1
  O  O6  1  0.67145538  0.09354328  0.64142537  1
  O  O7  1  0.67519808  0.17556655  0.08514319  1
  Al  Al8  1  0.36661124  0.25926325  0.13101152  1
  Ba  Ba9  1  0.43260515  0.81850815  0.88853174  1
  Cd  Cd10  1  0.88990045  0.77100760  0.61539793  1
  O  O11  1  0.90943927  0.72660244  0.91943365  1
  O  O12  1  0.19662786  0.99097776  0.56135154  1
  O  O13  1  0.29498646  0.26694840  0.86731601  1
  Al  Al14  1  0.38274011  0.26934880  0.61141032  1
  O  O15  1  0.49317834  0.32538429  0.36884853  1
  La  La16  1  0.88130909  0.32457262  0.84987718  1
  Y  Y17  1  0.38626489  0.70062459  0.39836168  1
  O  O18  1  0.56998330  0.54699701  0.64379722  1
  O  O19  1  0.16065522  0.16316730  0.03207897  1
  Si  Si20  1  0.91168880  0.76045692  0.31863132  1
  Y  Y21  1  0.90384924  0.32749391  0.58970195  1
  Y  Y22  1  0.41021454  0.84580183  0.57925540  1
  O  O23  1  0.15787214  0.09569894  0.69606495  1
  O  O24  1  0.15938181  0.59945148  0.69252878  1
  O  O25  1  0.68954349  0.63207167  0.03171668  1
  O  O26  1  0.65823156  0.09792403  0.70306671  1
  Y  Y27  1  0.41957092  0.90830785  0.13038412  1
  O  O28  1  0.15991966  0.63013434  0.02072040  1
  O  O29  1  0.67320359  0.88565433  0.36296946  1
  Y  Y30  1  0.41754696  0.37455636  0.85187155  1
  O  O31  1  0.68190050  0.15416060  0.02551750  1
  Al  Al32  1  0.92406243  0.39211378  0.08392555  1
  O  O33  1  0.15472530  0.87826192  0.35210276  1
  O  O34  1  0.65654123  0.59293091  0.68285739  1
  Y  Y35  1  0.91383737  0.86697137  0.85291344  1
  O  O36  1  0.90788972  0.45607963  0.30882731  1
  Y  Y37  1  0.52880204  0.94454134  0.94765890  1
  S  S38  1  0.68290448  0.42213866  0.23387134  1
  S  S39  1  0.17587228  0.91765249  0.22135337  1
  O  O40  1  0.98982048  0.07014365  0.86431694  1
  O  O41  1  0.48462012  0.56994665  0.86114764  1
  O  O42  1  0.35746321  0.77613652  0.60295600  1
  Sm  Sm43  1  0.32878569  0.40104046  0.51977223  1
  Sm  Sm44  1  0.82641101  0.89567447  0.51393038  1
  O  O45  1  0.85947806  0.27362829  0.60161948  1
  Sm  Sm46  1  0.03449771  0.43923101  0.94822270  1
  O  O47  1  0.03839586  0.21675082  0.41810146  1
  Sm  Sm48  1  0.72566801  0.78141910  0.06233811  1
  Si  Si49  1  0.22205389  0.28255510  0.06788245  1
  Sm  Sm50  1  0.47987303  0.04029405  0.56902504  1
  O  O51  1  0.44310173  0.11858578  0.21669559  1
  O  O52  1  0.39250708  0.34514251  0.90501171  1
  O  O53  1  0.81494957  0.47279173  0.72285879  1
  O  O54  1  0.16555448  0.59445620  0.21348861  1
  O  O55  1  0.75420594  0.69888616  0.40763587  1
  O  O56  1  0.91430205  0.06977426  0.91697371  1
  O  O57  1  0.29949802  0.74921483  0.71734226  1
  Si  Si58  1  0.97939312  0.53568679  0.56507957  1
  Mn  Mn59  1  0.17359968  0.79149795  0.80089855  1
  Rb  Rb60  1  0.55834794  0.33638218  0.15176696  1
  Mn  Mn61  1  0.88497621  0.91103476  0.40747929  1
  F  F62  1  0.08768950  0.61436778  0.50336081  1
  F  F63  1  0.52182317  0.87421066  0.60124809  1
  F  F64  1  0.35301518  0.49506724  0.80777812  1
  F  F65  1  0.19295090  0.99061912  0.12566842  1
  F  F66  1  0.84241122  0.75012910  0.04913567  1
  F  F67  1  0.98867810  0.08360751  0.73640704  1
