# generated using pymatgen
data_Li4YMg2Sc3Cr2Cu7ReSi3MoP5Pd5W4C3
_symmetry_space_group_name_H-M   'P 1'
_cell_length_a   3.44496751
_cell_length_b   4.36644650
_cell_length_c   4.41598129
_cell_angle_alpha   85.18354797
_cell_angle_beta   76.65918732
_cell_angle_gamma   76.65068054
_symmetry_Int_Tables_number   1
_chemical_formula_structural   Li4YMg2Sc3Cr2Cu7ReSi3MoP5Pd5W4C3
_chemical_formula_sum
'Li4 Y1 Mg2 Sc3 Cr2 Cu7 Si3 Re1 Mo1 P5 Pd5 W4 C3'
_cell_volume   62.85441210
_cell_formula_units_Z   1
loop_
 _symmetry_equiv_pos_site_id
 _symmetry_equiv_pos_as_xyz
  1  'x, y, z'
loop_
 _atom_site_type_symbol
 _atom_site_label
 _atom_site_symmetry_multiplicity
 _atom_site_fract_x
 _atom_site_fract_y
 _atom_site_fract_z
 _atom_site_occupancy
  Mg  Mg0  1  0.27369350  0.09941434  0.31736299  1
  Mg  Mg1  1  0.77936965  0.59939170  0.82242054  1
  Cu  Cu2  1  0.26637605  0.94767690  0.73117876  1
  Pd  Pd3  1  0.75911891  0.94349605  0.56382889  1
  Cu  Cu4  1  0.76374537  0.44605243  0.73199457  1
  Pd  Pd5  1  0.76475781  0.94168609  0.89577603  1
  Cu  Cu6  1  0.25897405  0.44692472  0.22886164  1
  Cu  Cu7  1  0.26132303  0.94390994  0.06433222  1
  Cu  Cu8  1  0.76725632  0.44339451  0.06450696  1
  Cu  Cu9  1  0.76748306  0.44589391  0.39321867  1
  Pd  Pd10  1  0.76230055  0.94272316  0.23026140  1
  Pd  Pd11  1  0.26662210  0.44882292  0.89458388  1
  Cu  Cu12  1  0.26082683  0.94547814  0.39463186  1
  Pd  Pd13  1  0.26851767  0.44856557  0.56269896  1
  Sc  Sc14  1  0.88666272  0.45106009  0.80585980  1
  Cr  Cr15  1  0.88956261  0.76258725  0.19308788  1
  Sc  Sc16  1  0.58963025  0.26845136  0.49481589  1
  Sc  Sc17  1  0.29506382  0.06125104  0.19199017  1
  Cr  Cr18  1  0.28078616  0.75467718  0.81520331  1
  C  C19  1  0.58895391  0.75970244  0.49953058  1
  Mo  Mo20  1  0.52823901  0.42263815  0.66752207  1
  Si  Si21  1  0.01542198  0.69005662  0.26432014  1
  Li  Li22  1  0.52944815  0.67898911  0.94680476  1
  Li  Li23  1  0.01792250  0.17582467  0.47387978  1
  Li  Li24  1  0.02540766  0.99297249  0.75107735  1
  C  C25  1  0.35343751  0.56664956  0.16113700  1
  Re  Re26  1  0.02700487  0.68033582  0.53677237  1
  Li  Li27  1  0.51689202  0.48131162  0.38703188  1
  Y  Y28  1  0.03459685  0.19200402  0.07873264  1
  Si  Si29  1  0.52837211  0.92446685  0.56284630  1
  C  C30  1  0.67362702  0.51197940  0.14997262  1
  Si  Si31  1  0.03098738  0.47681388  0.79535002  1
  P  P32  1  0.17595975  0.25142038  0.07688009  1
  P  P33  1  0.41846129  0.60604006  0.63675159  1
  P  P34  1  0.95314479  0.89116746  0.51129305  1
  W  W35  1  0.49030098  0.83673412  0.96403897  1
  W  W36  1  0.26321745  0.47972837  0.40467083  1
  P  P37  1  0.79683787  0.42393145  0.85747379  1
  P  P38  1  0.57116324  0.08165387  0.29649082  1
  W  W39  1  0.87697506  0.66640884  0.18560335  1
  W  W40  1  0.10862897  0.01921848  0.75017780  1
