# generated using pymatgen
data_CsKRbNa3Ca2LaCeGdDyY2Lu3ZrTiNb2CdInAg2GeB3Se7S6(O10F3)2
_symmetry_space_group_name_H-M   'P 1'
_cell_length_a   5.59124756
_cell_length_b   5.81994486
_cell_length_c   6.98872089
_cell_angle_alpha   65.01473236
_cell_angle_beta   68.34773254
_cell_angle_gamma   61.43891525
_symmetry_Int_Tables_number   1
_chemical_formula_structural
CsKRbNa3Ca2LaCeGdDyY2Lu3ZrTiNb2CdInAg2GeB3Se7S6(O10F3)2
_chemical_formula_sum
;
Cs1 Rb1 K1 Na3 Ca2 La1 Ce1 Gd1 Dy1 Y2 Lu3 Zr1 Ti1 Nb2 Cd1 In1 Ag2 Ge1
B3 Se7 S6 O20 F6
;
_cell_volume   177.02076967
_cell_formula_units_Z   1
loop_
 _symmetry_equiv_pos_site_id
 _symmetry_equiv_pos_as_xyz
  1  'x, y, z'
loop_
 _atom_site_type_symbol
 _atom_site_label
 _atom_site_symmetry_multiplicity
 _atom_site_fract_x
 _atom_site_fract_y
 _atom_site_fract_z
 _atom_site_occupancy
  F  F0  1  0.59486955  0.58729440  0.00770691  1
  Cs  Cs1  1  0.10489879  0.57896060  0.52207577  1
  F  F2  1  0.11358873  0.59063995  0.00715072  1
  Rb  Rb3  1  0.60246146  0.07361627  0.02935667  1
  F  F4  1  0.59225047  0.05711384  0.53888428  1
  Na  Na5  1  0.85106957  0.32457721  0.27065670  1
  In  In6  1  0.35750103  0.82546300  0.76905227  1
  F  F7  1  0.11422908  0.06272021  0.53775781  1
  F  F8  1  0.58665121  0.58939803  0.53525394  1
  F  F9  1  0.11548697  0.06439996  0.01224547  1
  Ag  Ag10  1  0.71756756  0.05961932  0.01300383  1
  Lu  Lu11  1  0.72606987  0.68935198  0.63622081  1
  S  S12  1  0.72525233  0.04866396  0.68796498  1
  S  S13  1  0.72705841  0.42777371  0.37683222  1
  S  S14  1  0.22186102  0.17831075  0.12837061  1
  S  S15  1  0.22971554  0.48738202  0.74616158  1
  S  S16  1  0.22523972  0.78993845  0.43675962  1
  La  La17  1  0.22149198  0.18089411  0.50339305  1
  Ce  Ce18  1  0.23264235  0.54705811  0.13613349  1
  S  S19  1  0.72881240  0.72510207  0.00705241  1
  Se  Se20  1  0.70221484  0.16833681  0.89368963  1
  Dy  Dy21  1  0.63870329  0.53413993  0.11705818  1
  Ca  Ca22  1  0.06650387  0.38974410  0.83215481  1
  Se  Se23  1  0.84504658  0.47104287  0.47626591  1
  Se  Se24  1  0.42552224  0.59964007  0.75443041  1
  Ca  Ca25  1  0.92268699  0.10673852  0.25912875  1
  Se  Se26  1  0.99710852  0.74650896  0.04144292  1
  Y  Y27  1  0.35437861  0.95817930  0.98051214  1
  Se  Se28  1  0.29360107  0.32147661  0.19938745  1
  Lu  Lu29  1  0.78446138  0.81907684  0.69109881  1
  Lu  Lu30  1  0.49731627  0.24789159  0.54919398  1
  Y  Y31  1  0.20996515  0.67244118  0.40169230  1
  Se  Se32  1  0.14309263  0.02831375  0.62041879  1
  Se  Se33  1  0.56249833  0.89259678  0.34051338  1
  O  O34  1  0.31534210  0.59248340  0.56698149  1
  Gd  Gd35  1  0.31612539  0.09459959  0.58277869  1
  Zr  Zr36  1  0.82223392  0.09439389  0.90267891  1
  Cd  Cd37  1  0.31359580  0.61531168  0.35885784  1
  Ag  Ag38  1  0.82220680  0.58683354  0.58709288  1
  O  O39  1  0.31084386  0.10591404  0.28175524  1
  O  O40  1  0.82305372  0.59609616  0.90955573  1
  Ti  Ti41  1  0.81188095  0.10599867  0.26655701  1
  Na  Na42  1  0.31248480  0.59208578  0.80206233  1
  Na  Na43  1  0.32376233  0.59562439  0.07702141  1
  O  O44  1  0.81516552  0.09300213  0.09618599  1
  O  O45  1  0.82017756  0.09924489  0.71445417  1
  O  O46  1  0.81493211  0.08528791  0.44753742  1
  O  O47  1  0.81551319  0.58618146  0.26999727  1
  O  O48  1  0.31980702  0.08722579  0.90467906  1
  O  O49  1  0.38695019  0.35763514  0.72559887  1
  O  O50  1  0.34462553  0.64766955  0.10811806  1
  K  K51  1  0.99190331  0.98084432  0.52123612  1
  Ge  Ge52  1  0.63365871  0.25301439  0.67605543  1
  O  O53  1  0.88242412  0.41997299  0.67569965  1
  Nb  Nb54  1  0.25479156  0.62622958  0.78994972  1
  O  O55  1  0.76876807  0.16028862  0.84917724  1
  O  O56  1  0.28151050  0.29591134  0.13930769  1
  B  B57  1  0.31807846  0.85844040  0.25292063  1
  O  O58  1  0.59834349  0.80890077  0.90037513  1
  O  O59  1  0.86435467  0.22665188  0.24420141  1
  O  O60  1  0.09694107  0.90297234  0.19258636  1
  O  O61  1  0.50944233  0.99016523  0.44032663  1
  Nb  Nb62  1  0.95102710  0.04058548  0.01248451  1
  B  B63  1  0.44621581  0.49260297  0.18534681  1
  O  O64  1  0.71356791  0.55788130  0.29988730  1
  O  O65  1  0.09346017  0.86153054  0.83756328  1
  O  O66  1  0.15219992  0.58237624  0.50212061  1
  B  B67  1  0.90979791  0.44863322  0.34210473  1
