# generated using pymatgen
data_Sr2CaLa4Ce2Nd6Y3ScTaBeAlNi3Br2(O7F)4
_symmetry_space_group_name_H-M   'P 1'
_cell_length_a   5.22100830
_cell_length_b   5.45920849
_cell_length_c   5.97564554
_cell_angle_alpha   115.06410217
_cell_angle_beta   89.75107574
_cell_angle_gamma   89.11318970
_symmetry_Int_Tables_number   1
_chemical_formula_structural   Sr2CaLa4Ce2Nd6Y3ScTaBeAlNi3Br2(O7F)4
_chemical_formula_sum
'Sr2 Ca1 La4 Ce2 Nd6 Y3 Sc1 Ta1 Be1 Al1 Ni3 Br2 O28 F4'
_cell_volume   154.25321347
_cell_formula_units_Z   1
loop_
 _symmetry_equiv_pos_site_id
 _symmetry_equiv_pos_as_xyz
  1  'x, y, z'
loop_
 _atom_site_type_symbol
 _atom_site_label
 _atom_site_symmetry_multiplicity
 _atom_site_fract_x
 _atom_site_fract_y
 _atom_site_fract_z
 _atom_site_occupancy
  O  O0  1  0.66172200  0.51455390  0.50442851  1
  O  O1  1  0.84797293  0.26599097  0.98963720  1
  O  O2  1  0.66072381  0.05432942  0.50304109  1
  Al  Al3  1  0.40060276  0.25943410  0.44361597  1
  Sc  Sc4  1  0.91529191  0.38173577  0.70509422  1
  O  O5  1  0.28889468  0.11321830  0.13151903  1
  Ce  Ce6  1  0.92864114  0.70284647  0.33155459  1
  O  O7  1  0.19325519  0.56177467  0.57917762  1
  O  O8  1  0.19223541  0.09274784  0.58589518  1
  Ce  Ce9  1  0.49813339  0.92129439  0.77763218  1
  O  O10  1  0.86240798  0.78512651  0.98773366  1
  Be  Be11  1  0.00112372  0.04879231  0.03406890  1
  Y  Y12  1  0.38068226  0.81432039  0.07839400  1
  O  O13  1  0.52843255  0.00084748  0.83174455  1
  O  O14  1  0.66802669  0.88760668  0.31601641  1
  O  O15  1  0.95091897  0.26899827  0.93322688  1
  O  O16  1  0.65024579  0.36369836  0.27681112  1
  La  La17  1  0.86119139  0.58545142  0.16974020  1
  O  O18  1  0.24244511  0.62528056  0.21724251  1
  Y  Y19  1  0.80423439  0.07518208  0.06591219  1
  Br  Br20  1  0.99895614  0.70569634  0.71993291  1
  La  La21  1  0.32615796  0.30895740  0.97734535  1
  O  O22  1  0.54356843  0.52686656  0.86771911  1
  La  La23  1  0.47724757  0.66578156  0.54543692  1
  La  La24  1  0.71890473  0.21385144  0.60337162  1
  Br  Br25  1  0.19128588  0.18651463  0.42361486  1
  O  O26  1  0.35923052  0.27233371  0.40159652  1
  Ca  Ca27  1  0.35707203  0.26512203  0.89713758  1
  O  O28  1  0.85964787  0.76987678  0.39193270  1
  Y  Y29  1  0.85028237  0.26764643  0.39975792  1
  Ta  Ta30  1  0.85752243  0.77171397  0.89969146  1
  O  O31  1  0.85906440  0.26867923  0.89669579  1
  O  O32  1  0.36031258  0.76322979  0.89966094  1
  Nd  Nd33  1  0.81854916  0.99218595  0.39666402  1
  Nd  Nd34  1  0.30269298  0.62528676  0.81248939  1
  O  O35  1  0.52845919  0.55905241  0.03872681  1
  Nd  Nd36  1  0.23135686  0.12537402  0.68344837  1
  Nd  Nd37  1  0.75451714  0.48901415  0.25999680  1
  O  O38  1  0.69519430  0.64844579  0.61681616  1
  Nd  Nd39  1  0.35782814  0.24980515  0.16770975  1
  O  O40  1  0.35738564  0.46764508  0.45596242  1
  Ni  Ni41  1  0.02572540  0.55494738  0.54282349  1
  O  O42  1  0.00311661  0.46002895  0.85197008  1
  O  O43  1  0.75926614  0.16534637  0.08420762  1
  Ni  Ni44  1  0.30018708  0.75884181  0.27358001  1
  O  O45  1  0.48934236  0.93978649  0.33690479  1
  Nd  Nd46  1  0.70485932  0.86024725  0.91076410  1
  O  O47  1  0.99313247  0.27298397  0.44453546  1
  Ni  Ni48  1  0.75211424  0.34700644  0.80193144  1
  O  O49  1  0.29919308  0.94743174  0.98635805  1
  O  O50  1  0.06266695  0.84328449  0.62385833  1
  O  O51  1  0.56798494  0.17369327  0.73977274  1
  O  O52  1  0.04906935  0.65691411  0.22490664  1
  F  F53  1  0.50764900  0.93603468  0.36162794  1
  Sr  Sr54  1  0.00992456  0.94494289  0.61210525  1
  F  F55  1  0.51009732  0.93527520  0.86358970  1
  F  F56  1  0.00850568  0.43626484  0.36476842  1
  F  F57  1  0.00744718  0.44499022  0.86020011  1
  Sr  Sr58  1  0.51049012  0.44788519  0.11613182  1
