# generated using pymatgen
data_Cs2Ce3Dy3Y3Th5U2TlIn2Cu3Si2Sn3B6Sb3As4Ir3Pd3Rh(Au3Se8)2
_symmetry_space_group_name_H-M   'P 1'
_cell_length_a   4.94892168
_cell_length_b   6.19956732
_cell_length_c   6.43931723
_cell_angle_alpha   95.34755707
_cell_angle_beta   94.27258301
_cell_angle_gamma   90.64275360
_symmetry_Int_Tables_number   1
_chemical_formula_structural
Cs2Ce3Dy3Y3Th5U2TlIn2Cu3Si2Sn3B6Sb3As4Ir3Pd3Rh(Au3Se8)2
_chemical_formula_sum
;
Cs2 Ce3 Y3 Dy3 Th5 U2 Tl1 In2 Si2 Cu3 Sn3 B6 Sb3 As4 Ir3 Pd3 Rh1 Au6
Se16
;
_cell_volume   196.12645399
_cell_formula_units_Z   1
loop_
 _symmetry_equiv_pos_site_id
 _symmetry_equiv_pos_as_xyz
  1  'x, y, z'
loop_
 _atom_site_type_symbol
 _atom_site_label
 _atom_site_symmetry_multiplicity
 _atom_site_fract_x
 _atom_site_fract_y
 _atom_site_fract_z
 _atom_site_occupancy
  B  B0  1  0.96540749  0.82942909  0.78384823  1
  Ir  Ir1  1  0.20909892  0.74323738  0.56595695  1
  Ce  Ce2  1  0.66344970  0.50778627  0.49774802  1
  B  B3  1  0.88639921  0.61385822  0.88519144  1
  Ir  Ir4  1  0.33549440  0.19401519  0.22126424  1
  Rh  Rh5  1  0.66258919  0.02457245  0.72615212  1
  Ce  Ce6  1  0.89481431  0.95974833  0.24504325  1
  Ir  Ir7  1  0.90869492  0.43373036  0.11177775  1
  B  B8  1  0.15289369  0.47549936  0.35263154  1
  Y  Y9  1  0.39708403  0.70657825  0.02407918  1
  B  B10  1  0.43967342  0.96922207  0.43158782  1
  B  B11  1  0.58167899  0.23361291  0.01258194  1
  B  B12  1  0.69096404  0.37338704  0.84667647  1
  Ce  Ce13  1  0.17190097  0.24579084  0.72900546  1
  Se  Se14  1  0.12455325  0.85612541  0.98751616  1
  Si  Si15  1  0.55678278  0.64792758  0.65028667  1
  Se  Se16  1  0.88270020  0.66235203  0.25263536  1
  Cs  Cs17  1  0.67346573  0.29451516  0.91129768  1
  Tl  Tl18  1  0.39620441  0.16446260  0.29041290  1
  Cu  Cu19  1  0.10990183  0.55114555  0.82295686  1
  Cs  Cs20  1  0.06599474  0.99356598  0.62265766  1
  Cu  Cu21  1  0.52324224  0.62869418  0.24462782  1
  Se  Se22  1  0.58267277  0.81746501  0.91233104  1
  Se  Se23  1  0.27389604  0.47513172  0.59787399  1
  Se  Se24  1  0.50878435  0.85841709  0.49402103  1
  Se  Se25  1  0.25453430  0.41775003  0.05601405  1
  Se  Se26  1  0.79679954  0.45338705  0.61375022  1
  Cu  Cu27  1  0.22935714  0.58627492  0.33037722  1
  Se  Se28  1  0.86653054  0.13650081  0.25822043  1
  Si  Si29  1  0.87272972  0.86989582  0.10173520  1
  As  As30  1  0.63765609  0.44060379  0.70588213  1
  As  As31  1  0.91786510  0.51405454  0.23909652  1
  As  As32  1  0.17576872  0.02736518  0.74250358  1
  U  U33  1  0.54144681  0.81431341  0.48795688  1
  U  U34  1  0.26681897  0.64988673  0.96751070  1
  Pd  Pd35  1  0.40229860  0.23063861  0.22471176  1
  As  As36  1  0.90121055  0.94476569  0.21723999  1
  Pd  Pd37  1  0.04104377  0.31566799  0.51974428  1
  Pd  Pd38  1  0.76730293  0.14302002  0.92567790  1
  Se  Se39  1  0.14800793  0.90912873  0.17206234  1
  Y  Y40  1  0.60119534  0.40540919  0.68329382  1
  In  In41  1  0.28726536  0.11816369  0.33554706  1
  Se  Se42  1  0.87183315  0.59353524  0.74487263  1
  Se  Se43  1  0.85192561  0.11420827  0.53687561  1
  Se  Se44  1  0.66715974  0.09960040  0.02816367  1
  Se  Se45  1  0.39088649  0.78296411  0.59467477  1
  Se  Se46  1  0.27305946  0.48916036  0.05651456  1
  In  In47  1  0.24946374  0.57900143  0.42793667  1
  Dy  Dy48  1  0.01288618  0.85105318  0.87777060  1
  Se  Se49  1  0.68707621  0.57966840  0.22674221  1
  Dy  Dy50  1  0.94230646  0.28943244  0.08111805  1
  Se  Se51  1  0.26862004  0.20727424  0.70250499  1
  Y  Y52  1  0.52547592  0.84550816  0.88712156  1
  Au  Au53  1  0.68852037  0.44761044  0.34955966  1
  Au  Au54  1  0.68837780  0.78282195  0.01834813  1
  Sn  Sn55  1  0.18972039  0.44675565  0.34964901  1
  Au  Au56  1  0.18752785  0.44784567  0.01565184  1
  Sb  Sb57  1  0.68805569  0.78400218  0.68255126  1
  Dy  Dy58  1  0.93403703  0.78094274  0.34590176  1
  Au  Au59  1  0.18095295  0.78064317  0.67851210  1
  Sb  Sb60  1  0.18758817  0.78246230  0.01592875  1
  Sn  Sn61  1  0.68512344  0.11502376  0.34885150  1
  Th  Th62  1  0.43964326  0.11697842  0.01373496  1
  Sb  Sb63  1  0.69179523  0.45209488  0.01561199  1
  Th  Th64  1  0.43898687  0.77574122  0.34607711  1
  Au  Au65  1  0.18860771  0.11322845  0.35188988  1
  Th  Th66  1  0.93715870  0.45109493  0.68324095  1
  Th  Th67  1  0.93325967  0.10957870  0.01528390  1
  Sn  Sn68  1  0.18719976  0.11492033  0.68016279  1
  Th  Th69  1  0.43985415  0.45176226  0.68560690  1
  Au  Au70  1  0.68826127  0.10913038  0.67803228  1
