# generated using pymatgen
data_K3Na2Sr4Li4CaDy3ScMn2NbCo4B3SbAs3WC2BrO41F8
_symmetry_space_group_name_H-M   'P 1'
_cell_length_a   6.66438293
_cell_length_b   6.67677546
_cell_length_c   6.49169207
_cell_angle_alpha   66.84469604
_cell_angle_beta   66.74044037
_cell_angle_gamma   72.15884399
_symmetry_Int_Tables_number   1
_chemical_formula_structural
K3Na2Sr4Li4CaDy3ScMn2NbCo4B3SbAs3WC2BrO41F8
_chemical_formula_sum
'K3 Na2 Sr4 Li4 Ca1 Dy3 Sc1 Mn2 Nb1 Co4 B3 Sb1 As3 W1 C2 Br1 O41 F8'
_cell_volume   240.06762418
_cell_formula_units_Z   1
loop_
 _symmetry_equiv_pos_site_id
 _symmetry_equiv_pos_as_xyz
  1  'x, y, z'
loop_
 _atom_site_type_symbol
 _atom_site_label
 _atom_site_symmetry_multiplicity
 _atom_site_fract_x
 _atom_site_fract_y
 _atom_site_fract_z
 _atom_site_occupancy
  F  F0  1  0.62268543  0.32791823  0.25460410  1
  Br  Br1  1  0.08326723  0.02881301  0.56561941  1
  F  F2  1  0.17065394  0.20311312  0.95958012  1
  F  F3  1  0.50195867  0.44315630  0.68003660  1
  F  F4  1  0.92022854  0.61867082  0.11408728  1
  Ca  Ca5  1  0.30726603  0.37888291  0.11090180  1
  Na  Na6  1  0.97161233  0.94167346  0.15544176  1
  K  K7  1  0.87357199  0.50425357  0.76977944  1
  F  F8  1  0.44459036  0.72875917  0.97004151  1
  F  F9  1  0.67243934  0.82815969  0.46692324  1
  Na  Na10  1  0.51466072  0.08008476  0.68972582  1
  F  F11  1  0.58212805  0.03279853  0.05503565  1
  Dy  Dy12  1  0.52693474  0.67753232  0.30739179  1
  F  F13  1  0.19444591  0.59327263  0.37519103  1
  Sr  Sr14  1  0.80178720  0.91347045  0.60287344  1
  O  O15  1  0.06657033  0.10535546  0.81555790  1
  Dy  Dy16  1  0.83317202  0.40815821  0.85798866  1
  O  O17  1  0.63682377  0.68390501  0.31500879  1
  Nb  Nb18  1  0.83345783  0.40438816  0.35589287  1
  Dy  Dy19  1  0.33475840  0.90561116  0.35838616  1
  O  O20  1  0.03038401  0.13023540  0.39892417  1
  O  O21  1  0.35464114  0.82730931  0.62729251  1
  O  O22  1  0.13613407  0.63465708  0.89463866  1
  W  W23  1  0.33491486  0.90503979  0.85799968  1
  O  O24  1  0.60183316  0.71417916  0.90242863  1
  Sr  Sr25  1  0.30217052  0.39893681  0.60914868  1
  Sr  Sr26  1  0.87786061  0.90370560  0.11073017  1
  O  O27  1  0.80840522  0.33378726  0.12045220  1
  O  O28  1  0.31414452  0.98404872  0.08874747  1
  O  O29  1  0.85623711  0.48970285  0.59090674  1
  O  O30  1  0.53222513  0.17077689  0.81482166  1
  O  O31  1  0.56163102  0.21374376  0.40184069  1
  Sr  Sr32  1  0.36803237  0.41389638  0.11251894  1
  O  O33  1  0.10937308  0.60280752  0.31014869  1
  O  O34  1  0.27539352  0.75403303  0.24411644  1
  Mn  Mn35  1  0.83625072  0.36481503  0.00642303  1
  Co  Co36  1  0.31255680  0.84790963  0.97587168  1
  Co  Co37  1  0.47635606  0.49782908  0.26128060  1
  O  O38  1  0.67647392  0.24928150  0.22459595  1
  Mn  Mn39  1  0.59103173  0.11187860  0.51099509  1
  O  O40  1  0.64313650  0.63652951  0.03262982  1
  O  O41  1  0.37710175  0.35182628  0.48790234  1
  O  O42  1  0.06086587  0.12375344  0.03287457  1
  O  O43  1  0.48708534  0.97541881  0.77405632  1
  O  O44  1  0.79636866  0.86602277  0.50020677  1
  Co  Co45  1  0.70372540  0.72780168  0.75280917  1
  O  O46  1  0.91230267  0.47276673  0.76832008  1
  Co  Co47  1  0.97217673  0.00607396  0.28196281  1
  O  O48  1  0.27918857  0.41770816  0.46518832  1
  Li  Li49  1  0.33444420  0.76027650  0.57235658  1
  O  O50  1  0.60537416  0.69291329  0.27098536  1
  C  C51  1  0.33108905  0.25763026  0.57041878  1
  O  O52  1  0.89418048  0.21994954  0.27612555  1
  B  B53  1  0.54097378  0.84745210  0.17028525  1
  O  O54  1  0.48991269  0.00435943  0.07523963  1
  O  O55  1  0.17629908  0.49721524  0.07945133  1
  O  O56  1  0.98946291  0.88377249  0.46554625  1
  Li  Li57  1  0.72978461  0.96917188  0.77814496  1
  Sc  Sc58  1  0.93135524  0.55629730  0.37226140  1
  O  O59  1  0.09174170  0.80952787  0.87471735  1
  Li  Li60  1  0.55073857  0.34514424  0.15886885  1
  C  C61  1  0.13530038  0.66262507  0.97243732  1
  B  B62  1  0.73883516  0.45329425  0.76515359  1
  O  O63  1  0.69116938  0.61058772  0.66387486  1
  B  B64  1  0.93829876  0.05552172  0.37309247  1
  O  O65  1  0.37522984  0.10258066  0.66567409  1
  Li  Li66  1  0.14346564  0.14733404  0.96697688  1
  O  O67  1  0.78457099  0.29596967  0.86795974  1
  As  As68  1  0.27614069  0.83564228  0.32821074  1
  O  O69  1  0.98489690  0.83614570  0.44299960  1
  As  As70  1  0.80920362  0.04605513  0.91771704  1
  O  O71  1  0.02857193  0.39440495  0.44390535  1
  O  O72  1  0.27611879  0.99756461  0.15947717  1
  As  As73  1  0.98341477  0.59305346  0.57374430  1
  O  O74  1  0.08085980  0.05540952  0.79045963  1
  O  O75  1  0.71671051  0.26777586  0.03108559  1
  O  O76  1  0.21792355  0.60156476  0.71822119  1
  O  O77  1  0.71410537  0.61708367  0.69374561  1
  O  O78  1  0.39229137  0.59045523  0.29579407  1
  Sb  Sb79  1  0.39689553  0.83938515  0.75078970  1
  O  O80  1  0.84632134  0.82066143  0.03168595  1
  K  K81  1  0.14381287  0.40620577  0.06727143  1
  O  O82  1  0.58137912  0.05675265  0.77103198  1
  O  O83  1  0.40429413  0.92477465  0.50266427  1
  K  K84  1  0.64933282  0.22960742  0.40087345  1
