# generated using pymatgen
data_Na2Li2Ca4La2Yb2EuMg2Ta3MnCr2FeHgBiRu2(S2O7)4
_symmetry_space_group_name_H-M   'P 1'
_cell_length_a   3.20473003
_cell_length_b   3.38142943
_cell_length_c   11.08069420
_cell_angle_alpha   87.12442017
_cell_angle_beta   89.12820435
_cell_angle_gamma   111.62092590
_symmetry_Int_Tables_number   1
_chemical_formula_structural
Na2Li2Ca4La2Yb2EuMg2Ta3MnCr2FeHgBiRu2(S2O7)4
_chemical_formula_sum
'Na2 Li2 Ca4 La2 Yb2 Eu1 Mg2 Ta3 Mn1 Cr2 Fe1 Hg1 Bi1 Ru2 S8 O28'
_cell_volume   111.41432084
_cell_formula_units_Z   1
loop_
 _symmetry_equiv_pos_site_id
 _symmetry_equiv_pos_as_xyz
  1  'x, y, z'
loop_
 _atom_site_type_symbol
 _atom_site_label
 _atom_site_symmetry_multiplicity
 _atom_site_fract_x
 _atom_site_fract_y
 _atom_site_fract_z
 _atom_site_occupancy
  O  O0  1  0.61627012  0.52198106  0.26862243  1
  O  O1  1  0.95359498  0.19416960  0.46264613  1
  O  O2  1  0.29421604  0.87518513  0.01247146  1
  Ca  Ca3  1  0.94449788  0.20113261  0.14090234  1
  O  O4  1  0.96017373  0.21735099  0.81550759  1
  Mg  Mg5  1  0.28674117  0.86398208  0.38395828  1
  Mg  Mg6  1  0.63680845  0.56388313  0.89994419  1
  Hg  Hg7  1  0.96265590  0.20979020  0.64065564  1
  O  O8  1  0.97773999  0.96970755  0.63882935  1
  Ta  Ta9  1  0.17649575  0.23165572  0.18794423  1
  Ta  Ta10  1  0.65311188  0.44271812  0.84537846  1
  O  O11  1  0.35186392  0.95418185  0.07748798  1
  O  O12  1  0.95226818  0.22503833  0.95585650  1
  O  O13  1  0.45297006  0.44134134  0.06659885  1
  Ta  Ta14  1  0.15537691  0.94608098  0.84835696  1
  Mn  Mn15  1  0.73529714  0.18527544  0.47543547  1
  O  O16  1  0.87045693  0.71963257  0.93077809  1
  O  O17  1  0.93921536  0.47293791  0.27304482  1
  O  O18  1  0.44161606  0.18404382  0.77846932  1
  O  O19  1  0.37002960  0.68350953  0.76700896  1
  O  O20  1  0.90239918  0.97205663  0.28255478  1
  Fe  Fe21  1  0.67430115  0.73294014  0.16829748  1
  O  O22  1  0.36423594  0.23438825  0.38564056  1
  O  O23  1  0.84073579  0.46919781  0.63341904  1
  Bi  Bi24  1  0.14838858  0.68922627  0.48396128  1
  O  O25  1  0.20301415  0.68059087  0.49341491  1
  O  O26  1  0.65960574  0.75318539  0.46038336  1
  Na  Na27  1  0.99958611  0.40518621  0.62574196  1
  O  O28  1  0.46498382  0.58190924  0.98698008  1
  O  O29  1  0.71301883  0.24042100  0.21775071  1
  O  O30  1  0.95321184  0.49405798  0.00165151  1
  La  La31  1  0.36474985  0.42566431  0.26923120  1
  O  O32  1  0.60379630  0.28434017  0.60696650  1
  La  La33  1  0.82808173  0.82741594  0.19253841  1
  Ru  Ru34  1  0.63171571  0.30084404  0.91100556  1
  O  O35  1  0.29746950  0.13029960  0.75639302  1
  Ru  Ru36  1  0.44450945  0.95504159  0.55662072  1
  O  O37  1  0.22742651  0.03363327  0.26935214  1
  O  O38  1  0.73401386  0.97917247  0.85776418  1
  Na  Na39  1  0.12892194  0.85037678  0.86395019  1
  Eu  Eu40  1  0.40847343  0.24396233  0.49759418  1
  S  S41  1  0.65734047  0.45457289  0.03005517  1
  S  S42  1  0.80224007  0.87306517  0.47052932  1
  Cr  Cr43  1  0.17174344  0.76141393  0.34520388  1
  Cr  Cr44  1  0.88173056  0.47783372  0.64369142  1
  S  S45  1  0.10311955  0.55024904  0.74299347  1
  S  S46  1  0.67166030  0.42889541  0.52025664  1
  Yb  Yb47  1  0.37287450  0.69063073  0.79165924  1
  S  S48  1  0.97930443  0.09483135  0.79758316  1
  Yb  Yb49  1  0.74892634  0.78404987  0.08901799  1
  S  S50  1  0.33882508  0.95306998  0.38273680  1
  S  S51  1  0.11874619  0.52203220  0.24513319  1
  Ca  Ca52  1  0.00941790  0.22110584  0.17761461  1
  S  S53  1  0.38476431  0.96245897  0.96270949  1
  Ca  Ca54  1  0.09298881  0.76146686  0.09888320  1
  Ca  Ca55  1  0.08774911  0.76259488  0.60227287  1
  O  O56  1  0.09279510  0.76333076  0.85035783  1
  Li  Li57  1  0.58699560  0.26407140  0.85398203  1
  O  O58  1  0.58716178  0.26620853  0.59736985  1
  Li  Li59  1  0.58840281  0.26247138  0.35058707  1
  O  O60  1  0.59337360  0.26917154  0.09946385  1
  O  O61  1  0.08353328  0.76223409  0.34738809  1
