# generated using pymatgen
data_Rb4Ba2Ca2Y4LuThAlCdIn2GaCu5Hg2Ge2Te5P4IrSe8S4Br7NO
_symmetry_space_group_name_H-M   'P 1'
_cell_length_a   5.06230545
_cell_length_b   7.22402716
_cell_length_c   7.63385963
_cell_angle_alpha   115.62155914
_cell_angle_beta   92.64598083
_cell_angle_gamma   97.50125122
_symmetry_Int_Tables_number   1
_chemical_formula_structural
Rb4Ba2Ca2Y4LuThAlCdIn2GaCu5Hg2Ge2Te5P4IrSe8S4Br7NO
_chemical_formula_sum
;
Rb4 Ba2 Ca2 Y4 Lu1 Th1 Al1 Cd1 In2 Ga1 Cu5 Hg2 Ge2 Te5 P4 Ir1 Se8 S4
Br7 N1 O1
;
_cell_volume   247.91708574
_cell_formula_units_Z   1
loop_
 _symmetry_equiv_pos_site_id
 _symmetry_equiv_pos_as_xyz
  1  'x, y, z'
loop_
 _atom_site_type_symbol
 _atom_site_label
 _atom_site_symmetry_multiplicity
 _atom_site_fract_x
 _atom_site_fract_y
 _atom_site_fract_z
 _atom_site_occupancy
  P  P0  1  0.93909734  0.49981907  0.75132728  1
  Ba  Ba1  1  0.10660871  0.77899933  0.54915446  1
  Ir  Ir2  1  0.12253822  0.22813137  0.55150080  1
  Ca  Ca3  1  0.08947653  0.33634648  0.01265225  1
  O  O4  1  0.09987695  0.30063206  0.31411153  1
  P  P5  1  0.57683277  0.64911062  0.21593001  1
  Ga  Ga6  1  0.58288962  0.17661512  0.70757872  1
  Y  Y7  1  0.60839307  0.32432660  0.35737646  1
  P  P8  1  0.56783527  0.03542691  0.94127691  1
  P  P9  1  0.61444938  0.97453707  0.39134482  1
  Ca  Ca10  1  0.07654024  0.90774083  0.13016397  1
  In  In11  1  0.48447591  0.61784154  0.84749871  1
  Hg  Hg12  1  0.55827230  0.69864899  0.58212799  1
  Br  Br13  1  0.03627114  0.26434624  0.63203168  1
  Rb  Rb14  1  0.05988755  0.78812397  0.10108982  1
  Br  Br15  1  0.03804623  0.72165185  0.58191156  1
  N  N16  1  0.47022679  0.43997967  0.45004803  1
  Br  Br17  1  0.05132800  0.30506834  0.16900083  1
  Hg  Hg18  1  0.56581670  0.29704526  0.18089782  1
  Br  Br19  1  0.55782896  0.54720438  0.93726319  1
  Br  Br20  1  0.55396283  0.95667523  0.34500080  1
  Cd  Cd21  1  0.59540486  0.26622590  0.62554026  1
  Br  Br22  1  0.54694116  0.02906359  0.85304230  1
  Al  Al23  1  0.18870521  0.42612857  0.46151179  1
  Br  Br24  1  0.21649684  0.77101582  0.82581007  1
  Ge  Ge25  1  0.46689200  0.27386037  0.33232325  1
  S  S26  1  0.71530998  0.19756775  0.08991636  1
  Rb  Rb27  1  0.71337038  0.71877360  0.07985279  1
  S  S28  1  0.23218457  0.04685235  0.35854554  1
  Rb  Rb29  1  0.73688620  0.82869148  0.57854402  1
  S  S30  1  0.71571136  0.34617639  0.56965119  1
  S  S31  1  0.20313029  0.50183570  0.29621810  1
  Ge  Ge32  1  0.96643370  0.27117220  0.33029491  1
  Rb  Rb33  1  0.21308558  0.27112794  0.82793951  1
  Te  Te34  1  0.77236867  0.08816666  0.56096721  1
  Th  Th35  1  0.26918733  0.58654374  0.63777387  1
  Te  Te36  1  0.26925328  0.58512431  0.38678807  1
  Te  Te37  1  0.76899570  0.59425938  0.82614648  1
  Ba  Ba38  1  0.77662063  0.08675395  0.24312736  1
  Te  Te39  1  0.26725525  0.09182797  0.82251978  1
  Te  Te40  1  0.26847824  0.57843655  0.09805618  1
  Se  Se41  1  0.74131691  0.69693208  0.11635475  1
  Cu  Cu42  1  0.50134146  0.27371055  0.31854048  1
  Se  Se43  1  0.75829959  0.20485377  0.08545472  1
  Cu  Cu44  1  0.50016975  0.11437426  0.60657871  1
  Y  Y45  1  0.48335508  0.94062454  0.96826231  1
  Cu  Cu46  1  0.84605783  0.45367464  0.27682239  1
  Y  Y47  1  0.13955422  0.33783701  0.55781716  1
  Se  Se48  1  0.77220821  0.91576684  0.65241295  1
  Y  Y49  1  0.49828708  0.68473619  0.45464256  1
  Cu  Cu50  1  0.14840716  0.93135476  0.64879966  1
  Se  Se51  1  0.24351588  0.66037506  0.77576989  1
  Cu  Cu52  1  0.85701543  0.66253316  0.78977305  1
  Lu  Lu53  1  0.50272310  0.43351698  0.94596064  1
  Se  Se54  1  0.71275479  0.40154460  0.59202778  1
  Se  Se55  1  0.22983995  0.47669786  0.25467584  1
  Se  Se56  1  0.28700641  0.99327523  0.34656709  1
  Se  Se57  1  0.23895502  0.17462312  0.84533620  1
  In  In58  1  0.87115341  0.98569697  0.30386943  1
