# generated using pymatgen
data_KBa3LiCe4Pr5V2InFe3Co2Cu5Sb2Te8Pb2Se4S8O17F10
_symmetry_space_group_name_H-M   'P 1'
_cell_length_a   5.87848616
_cell_length_b   6.26035452
_cell_length_c   8.93664455
_cell_angle_alpha   93.52257538
_cell_angle_beta   90.48980713
_cell_angle_gamma   95.04201508
_symmetry_Int_Tables_number   1
_chemical_formula_structural
KBa3LiCe4Pr5V2InFe3Co2Cu5Sb2Te8Pb2Se4S8O17F10
_chemical_formula_sum
'K1 Ba3 Li1 Ce4 Pr5 V2 In1 Fe3 Co2 Cu5 Sb2 Te8 Pb2 Se4 S8 O17 F10'
_cell_volume   326.95735554
_cell_formula_units_Z   1
loop_
 _symmetry_equiv_pos_site_id
 _symmetry_equiv_pos_as_xyz
  1  'x, y, z'
loop_
 _atom_site_type_symbol
 _atom_site_label
 _atom_site_symmetry_multiplicity
 _atom_site_fract_x
 _atom_site_fract_y
 _atom_site_fract_z
 _atom_site_occupancy
  S  S0  1  0.57198972  0.47358179  0.56262290  1
  Co  Co1  1  0.81615049  0.27585462  0.63678545  1
  S  S2  1  0.05908892  0.46992245  0.56681144  1
  S  S3  1  0.29263005  0.91855145  0.78904015  1
  S  S4  1  0.57793611  0.71501458  0.10463861  1
  Co  Co5  1  0.31670696  0.89879078  0.04179357  1
  S  S6  1  0.81280220  0.98525345  0.50014681  1
  S  S7  1  0.30931589  0.17678103  0.18825360  1
  Ba  Ba8  1  0.32028183  0.82529134  0.43204135  1
  Ba  Ba9  1  0.80813938  0.32650802  0.24655533  1
  S  S10  1  0.81928295  0.22000274  0.88496572  1
  Pb  Pb11  1  0.82188022  0.79181027  0.79504538  1
  Ba  Ba12  1  0.31580457  0.39167145  0.87491828  1
  S  S13  1  0.06791660  0.70141172  0.10379432  1
  Pr  Pr14  1  0.01281125  0.37079531  0.10899942  1
  Pr  Pr15  1  0.65734351  0.96799701  0.10966566  1
  O  O16  1  0.15677549  0.32625836  0.39727268  1
  Se  Se17  1  0.33576483  0.65257913  0.62171584  1
  Pr  Pr18  1  0.49878082  0.37245461  0.88361126  1
  K  K19  1  0.16255346  0.95985872  0.35877281  1
  Pr  Pr20  1  0.16462715  0.96701336  0.86539811  1
  O  O21  1  0.96692663  0.05336713  0.06804544  1
  Pr  Pr22  1  0.48782468  0.37391990  0.32634166  1
  Se  Se23  1  0.81442660  0.65798575  0.33961692  1
  Se  Se24  1  0.33484867  0.67277414  0.09862007  1
  Sb  Sb25  1  0.67910486  0.90448320  0.61270380  1
  O  O26  1  0.56147748  0.06639084  0.41895762  1
  O  O27  1  0.92346615  0.02404785  0.64740473  1
  Se  Se28  1  0.83566129  0.66033125  0.88071930  1
  O  O29  1  0.16361742  0.30335146  0.80887669  1
  O  O30  1  0.53133798  0.03737197  0.81416231  1
  O  O31  1  0.68659377  0.29079118  0.11612205  1
  Sb  Sb32  1  0.04388636  0.44692311  0.60953271  1
  O  O33  1  0.34552965  0.17917192  0.10066566  1
  Fe  Fe34  1  0.91505921  0.58693874  0.50792223  1
  O  O35  1  0.86676568  0.94060647  0.38118970  1
  O  O36  1  0.42543581  0.05264040  0.13640948  1
  Li  Li37  1  0.45210844  0.61647588  0.11599445  1
  V  V38  1  0.42704749  0.64872795  0.81239277  1
  O  O39  1  0.91644919  0.69605577  0.68370712  1
  O  O40  1  0.41871941  0.37265018  0.46927038  1
  O  O41  1  0.42759779  0.14275602  0.84183633  1
  O  O42  1  0.93229514  0.62080461  0.96333814  1
  Fe  Fe43  1  0.93127716  0.11085498  0.98306370  1
  V  V44  1  0.37694255  0.17103632  0.30766025  1
  O  O45  1  0.92621166  0.43794402  0.24746928  1
  Cu  Cu46  1  0.34529391  0.88019639  0.19829981  1
  F  F47  1  0.05625239  0.30547905  0.04042067  1
  O  O48  1  0.05089460  0.06003170  0.31787905  1
  F  F49  1  0.53587675  0.15102611  0.17719783  1
  Fe  Fe50  1  0.17026223  0.30121014  0.29409626  1
  F  F51  1  0.80654567  0.40570280  0.44216889  1
  Cu  Cu52  1  0.15797663  0.57921946  0.00963825  1
  Pb  Pb53  1  0.63895833  0.67931396  0.69479567  1
  F  F54  1  0.13229679  0.60653692  0.76465869  1
  F  F55  1  0.31847832  0.27141675  0.53011400  1
  O  O56  1  0.22769225  0.54866922  0.23241971  1
  F  F57  1  0.19150396  0.93223011  0.94379079  1
  F  F58  1  0.77796042  0.00700942  0.69408023  1
  F  F59  1  0.66075683  0.73739815  0.04374043  1
  F  F60  1  0.53805971  0.86142713  0.42256439  1
  Cu  Cu61  1  0.92056674  0.15342841  0.86973715  1
  F  F62  1  0.65244311  0.37316364  0.83660698  1
  Cu  Cu63  1  0.68174320  0.10894439  0.44620952  1
  Te  Te64  1  0.02624845  0.38051713  0.94394755  1
  Ce  Ce65  1  0.25836864  0.20977317  0.20863885  1
  Cu  Cu66  1  0.15044433  0.55406725  0.70719141  1
  Ce  Ce67  1  0.76211923  0.70792717  0.45525065  1
  Te  Te68  1  0.04371206  0.85255146  0.20566659  1
  Te  Te69  1  0.50401759  0.54192537  0.70525342  1
  Ce  Ce70  1  0.75199205  0.20372422  0.70004106  1
  Te  Te71  1  0.46134600  0.03041816  0.48005024  1
  Te  Te72  1  0.46810418  0.57025528  0.20503375  1
  Ce  Ce73  1  0.75172269  0.71333987  0.95829779  1
  Te  Te74  1  0.46971184  0.03740841  0.92918122  1
  Te  Te75  1  0.02780949  0.37509164  0.47284031  1
  In  In76  1  0.74530369  0.20556106  0.20556945  1
  Te  Te77  1  0.03913800  0.87385291  0.70916933  1
