# generated using pymatgen
data_BaSrLa3YAl3Tl2In3CuNi4Ge2BiP4Pd4S9Cl3O
_symmetry_space_group_name_H-M   'P 1'
_cell_length_a   4.46333647
_cell_length_b   5.52844286
_cell_length_c   6.22832155
_cell_angle_alpha   115.66661072
_cell_angle_beta   89.64944458
_cell_angle_gamma   89.77853394
_symmetry_Int_Tables_number   1
_chemical_formula_structural   BaSrLa3YAl3Tl2In3CuNi4Ge2BiP4Pd4S9Cl3O
_chemical_formula_sum
'Ba1 Sr1 La3 Y1 Al3 Tl2 In3 Cu1 Ni4 Ge2 Bi1 P4 Pd4 S9 Cl3 O1'
_cell_volume   138.51526226
_cell_formula_units_Z   1
loop_
 _symmetry_equiv_pos_site_id
 _symmetry_equiv_pos_as_xyz
  1  'x, y, z'
loop_
 _atom_site_type_symbol
 _atom_site_label
 _atom_site_symmetry_multiplicity
 _atom_site_fract_x
 _atom_site_fract_y
 _atom_site_fract_z
 _atom_site_occupancy
  Ba  Ba0  1  0.06274140  0.57299960  0.17427149  1
  Pd  Pd1  1  0.06540176  0.23867397  0.50692749  1
  Al  Al2  1  0.55916953  0.07254132  0.66826874  1
  Pd  Pd3  1  0.06324173  0.90220052  0.83003354  1
  Al  Al4  1  0.55810767  0.57015306  0.66517544  1
  Al  Al5  1  0.56055427  0.06974792  0.16856907  1
  Cl  Cl6  1  0.68048137  0.04971354  0.65140623  1
  Cl  Cl7  1  0.16735341  0.59224933  0.59756124  1
  Tl  Tl8  1  0.67263550  0.80088615  0.31302235  1
  Tl  Tl9  1  0.68127912  0.38388544  0.89515960  1
  In  In10  1  0.17580524  0.84644812  0.85288423  1
  Cl  Cl11  1  0.17310555  0.09915032  0.11786481  1
  O  O12  1  0.67699635  0.74983144  0.95132738  1
  Ge  Ge13  1  0.96041524  0.43667528  0.87502462  1
  S  S14  1  0.22233604  0.44082293  0.09445514  1
  In  In15  1  0.42808315  0.28375584  0.62547535  1
  S  S16  1  0.97839558  0.79206002  0.89063829  1
  In  In17  1  0.81393862  0.82715499  0.60555238  1
  Sr  Sr18  1  0.90246046  0.11727639  0.21313885  1
  S  S19  1  0.42319116  0.05780558  0.32290915  1
  S  S20  1  0.88540524  0.65965605  0.32286307  1
  Ge  Ge21  1  0.24229215  0.72208691  0.32965344  1
  S  S22  1  0.42529640  0.66586840  0.56810790  1
  S  S23  1  0.02316613  0.22550456  0.61727798  1
  S  S24  1  0.65177774  0.20719491  0.88835669  1
  Y  Y25  1  0.95880681  0.36769903  0.90045315  1
  Bi  Bi26  1  0.45943159  0.88342410  0.38634133  1
  Pd  Pd27  1  0.20102008  0.63299757  0.13998753  1
  Pd  Pd28  1  0.70185667  0.13227889  0.64357364  1
  S  S29  1  0.37064016  0.18125753  0.96354401  1
  P  P30  1  0.16968614  0.72829670  0.56598359  1
  La  La31  1  0.76839447  0.07234330  0.75305951  1
  Cu  Cu32  1  0.26221770  0.56687993  0.73603100  1
  Ni  Ni33  1  0.67585701  0.47569641  0.56230897  1
  La  La34  1  0.41567296  0.73516279  0.05133591  1
  Ni  Ni35  1  0.09931358  0.40239823  0.40075430  1
  Ni  Ni36  1  0.92751253  0.24096110  0.07198670  1
  P  P37  1  0.18288037  0.24169104  0.56501597  1
  P  P38  1  0.00903629  0.08003626  0.23081462  1
  S  S39  1  0.81628186  0.62948132  0.85217106  1
  Ni  Ni40  1  0.51212025  0.32471600  0.23700309  1
  P  P41  1  0.00076187  0.56182545  0.22985512  1
  La  La42  1  0.59331393  0.90043968  0.40033787  1
