# generated using pymatgen
data_Cs3Na2Li5CeMn4Nb2ZnCoHgAs2SeS5Br(O11F3)2
_symmetry_space_group_name_H-M   'P 1'
_cell_length_a   3.89647031
_cell_length_b   3.94331598
_cell_length_c   8.41370201
_cell_angle_alpha   93.21273041
_cell_angle_beta   91.75919342
_cell_angle_gamma   98.03573608
_symmetry_Int_Tables_number   1
_chemical_formula_structural
Cs3Na2Li5CeMn4Nb2ZnCoHgAs2SeS5Br(O11F3)2
_chemical_formula_sum
'Cs3 Na2 Li5 Ce1 Mn4 Nb2 Zn1 Co1 Hg1 As2 Se1 S5 Br1 O22 F6'
_cell_volume   127.70898694
_cell_formula_units_Z   1
loop_
 _symmetry_equiv_pos_site_id
 _symmetry_equiv_pos_as_xyz
  1  'x, y, z'
loop_
 _atom_site_type_symbol
 _atom_site_label
 _atom_site_symmetry_multiplicity
 _atom_site_fract_x
 _atom_site_fract_y
 _atom_site_fract_z
 _atom_site_occupancy
  S  S0  1  0.54497755  0.88149565  0.50520879  1
  Hg  Hg1  1  0.08105466  0.38961065  0.38770124  1
  Nb  Nb2  1  0.05964023  0.40135458  0.03098598  1
  S  S3  1  0.05296154  0.38968113  0.75331771  1
  S  S4  1  0.56838721  0.90923613  0.10405287  1
  Nb  Nb5  1  0.55191219  0.90295315  0.80655515  1
  O  O6  1  0.40851414  0.75595468  0.31544474  1
  Na  Na7  1  0.04729681  0.39050725  0.14178705  1
  O  O8  1  0.92204148  0.91693085  0.64265442  1
  S  S9  1  0.88795322  0.21300183  0.64039689  1
  O  O10  1  0.83477813  0.82951814  0.13861351  1
  S  S11  1  0.53188914  0.88898420  0.14136754  1
  O  O12  1  0.03234513  0.33855265  0.81209469  1
  O  O13  1  0.49850410  0.19132359  0.14153555  1
  Na  Na14  1  0.38062358  0.70720476  0.64316082  1
  O  O15  1  0.59281749  0.26525703  0.64850152  1
  O  O16  1  0.39634731  0.77178425  0.96728522  1
  O  O17  1  0.00256845  0.33708516  0.47415495  1
  F  F18  1  0.27844375  0.62422198  0.14833120  1
  O  O19  1  0.07831392  0.88754928  0.94320405  1
  Cs  Cs20  1  0.64358586  0.90270114  0.94565338  1
  F  F21  1  0.28383073  0.62354112  0.76038712  1
  As  As22  1  0.06276091  0.58227825  0.94984645  1
  F  F23  1  0.85935265  0.58035058  0.15372580  1
  O  O24  1  0.02707259  0.28631163  0.95103228  1
  Cs  Cs25  1  0.53286254  0.45990214  0.44585651  1
  F  F26  1  0.35603440  0.16350867  0.13696516  1
  Cs  Cs27  1  0.12922098  0.85727835  0.44583216  1
  F  F28  1  0.85483801  0.58583188  0.75098526  1
  Br  Br29  1  0.67607021  0.99308544  0.43560424  1
  As  As30  1  0.19475342  0.13238351  0.93951845  1
  F  F31  1  0.34985438  0.15784846  0.74516648  1
  Mn  Mn32  1  0.39678687  0.00368842  0.18107444  1
  Co  Co33  1  0.15003593  0.54038894  0.85235316  1
  Mn  Mn34  1  0.82532775  0.89079809  0.85947800  1
  Li  Li35  1  0.91757113  0.10070343  0.55745637  1
  O  O36  1  0.10112023  0.44580027  0.58427399  1
  O  O37  1  0.65392667  0.55315495  0.84462237  1
  O  O38  1  0.76285803  0.77579248  0.59250200  1
  O  O39  1  0.20416483  0.64537126  0.11430114  1
  O  O40  1  0.97915280  0.21462415  0.84365213  1
  O  O41  1  0.32172203  0.88549477  0.86419469  1
  O  O42  1  0.55972838  0.35280308  0.23540556  1
  Li  Li43  1  0.70616126  0.63766080  0.15019926  1
  Li  Li44  1  0.27462041  0.79969585  0.56597269  1
  O  O45  1  0.88062620  0.99696034  0.12529093  1
  Li  Li46  1  0.05295895  0.35252300  0.16900852  1
  Mn  Mn47  1  0.59812766  0.43351823  0.53321666  1
  Li  Li48  1  0.47821674  0.21478100  0.84414405  1
  O  O49  1  0.42055553  0.09358028  0.48609844  1
  Ce  Ce50  1  0.51247412  0.14886393  0.32099965  1
  Mn  Mn51  1  0.00869513  0.64600736  0.04805335  1
  O  O52  1  0.52596837  0.65925312  0.19824398  1
  O  O53  1  0.02103850  0.14890672  0.45550501  1
  O  O54  1  0.01980586  0.14753827  0.03641378  1
  Zn  Zn55  1  0.01922590  0.14399189  0.73897648  1
  Se  Se56  1  0.52388102  0.64661676  0.72395712  1
