# generated using pymatgen
data_BaCaCe3GdTh3UAlSiS2Cl8O13F2
_symmetry_space_group_name_H-M   'P 1'
_cell_length_a   3.88288713
_cell_length_b   3.93551970
_cell_length_c   6.20133495
_cell_angle_alpha   90.80566406
_cell_angle_beta   91.01332855
_cell_angle_gamma   93.88649750
_symmetry_Int_Tables_number   1
_chemical_formula_structural   BaCaCe3GdTh3UAlSiS2Cl8O13F2
_chemical_formula_sum
'Ba1 Ca1 Ce3 Gd1 Th3 U1 Al1 Si1 S2 Cl8 O13 F2'
_cell_volume   94.51993064
_cell_formula_units_Z   1
loop_
 _symmetry_equiv_pos_site_id
 _symmetry_equiv_pos_as_xyz
  1  'x, y, z'
loop_
 _atom_site_type_symbol
 _atom_site_label
 _atom_site_symmetry_multiplicity
 _atom_site_fract_x
 _atom_site_fract_y
 _atom_site_fract_z
 _atom_site_occupancy
  Th  Th0  1  0.15851004  0.50215352  0.99722731  1
  Th  Th1  1  0.65186888  0.00193364  0.49199125  1
  S  S2  1  0.14625059  0.50412214  0.49452022  1
  S  S3  1  0.65514141  0.00606371  0.99148548  1
  Si  Si4  1  0.52101487  0.94759399  0.07130726  1
  Gd  Gd5  1  0.02340693  0.95134079  0.57408875  1
  O  O6  1  0.02277577  0.44864675  0.56979477  1
  O  O7  1  0.52715755  0.71372753  0.31764168  1
  O  O8  1  0.52441579  0.16681916  0.33154243  1
  O  O9  1  0.02177780  0.95212406  0.06987174  1
  Al  Al10  1  0.51716536  0.45696518  0.57071382  1
  O  O11  1  0.52423930  0.73257542  0.80892652  1
  O  O12  1  0.52304697  0.19532162  0.81964737  1
  U  U13  1  0.20462932  0.78443152  0.60962051  1
  Ce  Ce14  1  0.71184224  0.29113778  0.10939204  1
  O  O15  1  0.20837216  0.28400269  0.85058618  1
  O  O16  1  0.20612119  0.28252137  0.37376863  1
  O  O17  1  0.71347374  0.78308612  0.85109186  1
  O  O18  1  0.70632875  0.79037744  0.37171802  1
  F  F19  1  0.38730091  0.51242840  0.82593364  1
  O  O20  1  0.38934508  0.52546728  0.44553423  1
  Ba  Ba21  1  0.89564323  0.52066451  0.13704586  1
  Th  Th22  1  0.38721731  0.01592799  0.61456710  1
  O  O23  1  0.88488883  0.02949405  0.43993956  1
  F  F24  1  0.38729897  0.02311751  0.12315849  1
  O  O25  1  0.88198549  0.02155763  0.79410011  1
  Ce  Ce26  1  0.69800830  0.55170518  0.61883485  1
  Ce  Ce27  1  0.55176938  0.90467304  0.32868183  1
  Cl  Cl28  1  0.63656598  0.86425084  0.96694154  1
  Cl  Cl29  1  0.31228366  0.16020934  0.23068348  1
  Cl  Cl30  1  0.52843469  0.21661840  0.69114506  1
  Cl  Cl31  1  0.93933678  0.95876795  0.70660621  1
  Cl  Cl32  1  0.30519548  0.65780127  0.44034109  1
  Cl  Cl33  1  0.09002296  0.57942635  0.96823770  1
  Cl  Cl34  1  0.67996609  0.54238313  0.21964306  1
  Cl  Cl35  1  0.92336524  0.27174434  0.44690269  1
  Ca  Ca36  1  0.91471785  0.27271643  0.06894192  1
