# generated using pymatgen
data_RbBa2Na5LaGd2YMg2Zr3TlZn4FePtS22Cl2(OF2)3
_symmetry_space_group_name_H-M   'P 1'
_cell_length_a   7.29840422
_cell_length_b   7.35349083
_cell_length_c   7.79058838
_cell_angle_alpha   77.90517426
_cell_angle_beta   71.25715637
_cell_angle_gamma   70.36435699
_symmetry_Int_Tables_number   1
_chemical_formula_structural
RbBa2Na5LaGd2YMg2Zr3TlZn4FePtS22Cl2(OF2)3
_chemical_formula_sum
'Rb1 Ba2 Na5 La1 Gd2 Y1 Mg2 Zr3 Tl1 Zn4 Fe1 Pt1 S22 Cl2 O3 F6'
_cell_volume   370.48916543
_cell_formula_units_Z   1
loop_
 _symmetry_equiv_pos_site_id
 _symmetry_equiv_pos_as_xyz
  1  'x, y, z'
loop_
 _atom_site_type_symbol
 _atom_site_label
 _atom_site_symmetry_multiplicity
 _atom_site_fract_x
 _atom_site_fract_y
 _atom_site_fract_z
 _atom_site_occupancy
  Mg  Mg0  1  0.67982352  0.56400561  0.03900933  1
  Na  Na1  1  0.04855080  0.92284226  0.39501265  1
  S  S2  1  0.45943666  0.03512755  0.28660786  1
  Gd  Gd3  1  0.79662204  0.05881308  0.92589682  1
  S  S4  1  0.48235795  0.41042361  0.88900781  1
  Na  Na5  1  0.31752664  0.20671810  0.68047512  1
  S  S6  1  0.17925277  0.87174147  0.72887617  1
  S  S7  1  0.68445677  0.84630603  0.75007564  1
  Gd  Gd8  1  0.58198476  0.66549802  0.53949815  1
  S  S9  1  0.91753334  0.31150243  0.56087142  1
  S  S10  1  0.39931652  0.54343176  0.35569030  1
  Y  Y11  1  0.18852213  0.38037863  0.21823381  1
  S  S12  1  0.88561189  0.71280998  0.18950304  1
  S  S13  1  0.97506911  0.24654847  0.05243099  1
  Ba  Ba14  1  0.15628636  0.27374890  0.00104375  1
  Pt  Pt15  1  0.52092987  0.63054085  0.72591192  1
  S  S16  1  0.02460146  0.63220412  0.73180723  1
  S  S17  1  0.67937553  0.78581423  0.05126740  1
  S  S18  1  0.35481828  0.47774130  0.40386242  1
  S  S19  1  0.52238941  0.13566449  0.72637218  1
  Ba  Ba20  1  0.87948072  0.98419607  0.45153749  1
  F  F21  1  0.74581343  0.51843977  0.28805137  1
  F  F22  1  0.73674232  0.92408651  0.58032131  1
  Na  Na23  1  0.73532933  0.68861347  0.98193026  1
  Na  Na24  1  0.23319992  0.15446323  0.79424196  1
  F  F25  1  0.23281842  0.57249445  0.81977081  1
  F  F26  1  0.24855277  0.89793694  0.21457839  1
  F  F27  1  0.24869721  0.25898230  0.47342247  1
  Tl  Tl28  1  0.74579167  0.12855645  0.30973572  1
  Na  Na29  1  0.23917134  0.66523522  0.48289338  1
  F  F30  1  0.74370396  0.12139081  0.98490578  1
  O  O31  1  0.79312927  0.88089871  0.77235782  1
  Fe  Fe32  1  0.29545605  0.85647541  0.83345151  1
  Cl  Cl33  1  0.82136893  0.36609232  0.23529436  1
  Cl  Cl34  1  0.30298033  0.39233547  0.61092383  1
  La  La35  1  0.80285966  0.35186186  0.89102876  1
  O  O36  1  0.31098801  0.12312613  0.95999891  1
  O  O37  1  0.30242932  0.62244397  0.97015011  1
  Rb  Rb38  1  0.33307630  0.87249720  0.31256789  1
  Zr  Zr39  1  0.98343325  0.99776512  0.90485841  1
  Mg  Mg40  1  0.98301470  0.60262746  0.70558727  1
  Zn  Zn41  1  0.47879478  0.29171723  0.31707138  1
  S  S42  1  0.72582644  0.75056994  0.91406190  1
  Zn  Zn43  1  0.98192739  0.79966652  0.30969441  1
  Zn  Zn44  1  0.47806376  0.89667577  0.10830058  1
  Zn  Zn45  1  0.47726378  0.09925804  0.70436984  1
  S  S46  1  0.73497838  0.14233862  0.11224276  1
  S  S47  1  0.23573799  0.84761876  0.70988047  1
  Zr  Zr48  1  0.98092139  0.19594640  0.51352298  1
  S  S49  1  0.23824206  0.04772844  0.30536404  1
  Zr  Zr50  1  0.98423207  0.39728034  0.10972209  1
  S  S51  1  0.72782111  0.54619962  0.30636275  1
  S  S52  1  0.72861701  0.94949502  0.50341433  1
  S  S53  1  0.73120040  0.34278488  0.71173918  1
  S  S54  1  0.23765241  0.24324861  0.91063172  1
  S  S55  1  0.23447433  0.64887124  0.11596122  1
  S  S56  1  0.23196477  0.44531602  0.50796658  1
